5ST0
  PyMOL2.5          3D                             0

 12 12  0  0  0  0  0  0  0  0999 V2000
   46.5769   -9.0612    5.1573 N   0  0  0  0  0  0  0  0  0  0  0  0
   52.1895   -7.4440    2.5790 C   0  0  0  0  0  0  0  0  0  0  0  0
   45.8861   -6.9408    4.8460 O   0  0  0  0  0  0  0  0  0  0  0  0
   50.9111   -7.7392    3.3531 C   0  0  0  0  0  0  0  0  0  0  0  0
   47.5694   -6.4385    2.8424 N   0  3  0  0  0  0  0  0  0  0  0  0
   50.3480   -6.4800    4.0101 C   0  0  0  0  0  0  0  0  0  0  0  0
   49.0762   -6.7878    4.7960 C   0  0  0  0  0  0  0  0  0  0  0  0
   48.0209   -7.4525    3.9074 C   0  0  0  0  0  0  0  0  0  0  0  0
   48.5839   -8.6910    3.2118 C   0  0  0  0  0  0  0  0  0  0  0  0
   49.8605   -8.3695    2.4428 C   0  0  0  0  0  0  0  0  0  0  0  0
   46.7332   -7.8061    4.6868 C   0  0  0  0  0  0  0  0  0  0  0  0
   51.2449   -8.7420    4.4576 C   0  0  0  0  0  0  0  0  0  0  0  0
  2  4  1  0  0  0  0
  4  6  1  0  0  0  0
  4 10  1  0  0  0  0
  5  8  1  0  0  0  0
  6  7  1  0  0  0  0
  7  8  1  0  0  0  0
  8  9  1  0  0  0  0
  9 10  1  0  0  0  0
  1 11  1  0  0  0  0
  3 11  2  0  0  0  0
  8 11  1  0  0  0  0
  4 12  1  0  0  0  0
M  END
$$$$
