5ST2
  PyMOL2.5          3D                             0

  8  8  0  0  0  0  0  0  0  0999 V2000
   27.3688   16.9440  -40.8329 N   0  0  0  0  0  0  0  0  0  0  0  0
   24.1152   14.5142  -39.7067 C   0  0  0  0  0  0  0  0  0  0  0  0
   28.7607   15.1107  -40.7188 O   0  0  0  0  0  0  0  0  0  0  0  0
   25.2808   15.3146  -40.1068 C   0  0  0  0  0  0  0  0  0  0  0  0
   26.2026   17.4226  -40.7219 N   0  0  0  0  0  0  0  0  0  0  0  0
   26.5308   14.7671  -40.2214 C   0  0  0  0  0  0  0  0  0  0  0  0
   27.5571   15.6222  -40.5916 C   0  0  0  0  0  0  0  0  0  0  0  0
   25.1401   16.6680  -40.3690 C   0  0  0  0  0  0  0  0  0  0  0  0
  2  4  1  0  0  0  0
  4  6  4  0  0  0  0
  4  8  4  0  0  0  0
  1  5  4  0  0  0  0
  5  8  4  0  0  0  0
  1  7  4  0  0  0  0
  3  7  2  0  0  0  0
  6  7  4  0  0  0  0
M  END
$$$$
