5ST4
  PyMOL2.5          3D                             0

 22 22  0  0  0  0  0  0  0  0999 V2000
    0.8768   63.5289    8.0126 N   0  0  0  0  0  0  0  0  0  0  0  0
    3.7715   59.7388   10.2902 C   0  0  0  0  0  0  0  0  0  0  0  0
    0.5300   58.2879   12.0573 Cl  0  0  0  0  0  0  0  0  0  0  0  0
    3.2548   60.3104    9.1427 C   0  0  0  0  0  0  0  0  0  0  0  0
    0.0217   60.4014    7.2899 N   0  0  0  0  0  0  0  0  0  0  0  0
    1.8839   60.3420    8.9187 C   0  0  0  0  0  0  0  0  0  0  0  0
    1.0404   59.7507    9.8519 C   0  0  0  0  0  0  0  0  0  0  0  0
    1.5795   59.1460   10.9723 C   0  0  0  0  0  0  0  0  0  0  0  0
    2.9319   59.1522   11.2178 C   0  0  0  0  0  0  0  0  0  0  0  0
    1.3246   60.9645    7.6484 C   0  0  0  0  0  0  0  0  0  0  0  0
    1.0829   62.4164    7.8785 C   0  0  0  0  0  0  0  0  0  0  0  0
   -1.2364   41.9047   27.6383 N   0  0  0  0  0  0  0  0  0  0  0  0
   -2.9279   45.8732   24.7472 C   0  0  0  0  0  0  0  0  0  0  0  0
    0.4219   44.9754   22.8227 Cl  0  0  0  0  0  0  0  0  0  0  0  0
   -3.2754   44.6300   25.2622 C   0  0  0  0  0  0  0  0  0  0  0  0
   -4.1724   42.1296   25.9343 N   0  0  0  0  0  0  0  0  0  0  0  0
   -2.4472   43.5355   25.0109 C   0  0  0  0  0  0  0  0  0  0  0  0
   -1.3048   43.6653   24.2710 C   0  0  0  0  0  0  0  0  0  0  0  0
   -0.9896   44.8865   23.7752 C   0  0  0  0  0  0  0  0  0  0  0  0
   -1.7662   46.0109   23.9910 C   0  0  0  0  0  0  0  0  0  0  0  0
   -2.7731   42.1747   25.5448 C   0  0  0  0  0  0  0  0  0  0  0  0
   -1.9269   42.0100   26.7248 C   0  0  0  0  0  0  0  0  0  0  0  0
  2  4  4  0  0  0  0
  4  6  4  0  0  0  0
  5 10  1  0  0  0  0
  6  7  4  0  0  0  0
  3  8  1  0  0  0  0
  7  8  4  0  0  0  0
  2  9  4  0  0  0  0
  8  9  4  0  0  0  0
  6 10  1  0  0  0  0
  1 11  3  0  0  0  0
 10 11  1  0  0  0  0
 13 15  4  0  0  0  0
 15 17  4  0  0  0  0
 16 21  1  0  0  0  0
 17 18  4  0  0  0  0
 14 19  1  0  0  0  0
 18 19  4  0  0  0  0
 13 20  4  0  0  0  0
 19 20  4  0  0  0  0
 17 21  1  0  0  0  0
 12 22  3  0  0  0  0
 21 22  1  0  0  0  0
M  END
$$$$
