5ST5
  PyMOL2.5          3D                             0

 24 24  0  0  0  0  0  0  0  0999 V2000
   72.6586  -29.7403   48.5700 N   0  3  0  0  0  0  0  0  0  0  0  0
   70.0312  -33.5460   48.7016 C   0  0  0  0  0  0  0  0  0  0  0  0
   74.5551  -30.8230   51.8966 O   0  0  0  0  0  0  0  0  0  0  0  0
   67.3700  -31.4035   50.5344 Cl  0  0  0  0  0  0  0  0  0  0  0  0
   71.0912  -32.7125   48.6794 C   0  0  0  0  0  0  0  0  0  0  0  0
   70.9406  -31.5141   49.2413 C   0  0  0  0  0  0  0  0  0  0  0  0
   69.7251  -31.1457   49.7073 C   0  0  0  0  0  0  0  0  0  0  0  0
   68.6963  -31.9550   49.7452 C   0  0  0  0  0  0  0  0  0  0  0  0
   68.8270  -33.2133   49.2335 C   0  0  0  0  0  0  0  0  0  0  0  0
   72.3053  -30.8355   49.5659 C   0  0  0  0  0  0  0  0  0  0  0  0
   72.5294  -30.1936   50.9098 C   0  0  0  0  0  0  0  0  0  0  0  0
   73.2104  -31.0765   51.9149 C   0  0  0  0  0  0  0  0  0  0  0  0
   45.8030  -29.2345   50.0225 N   0  3  0  0  0  0  0  0  0  0  0  0
   49.7699  -30.7649   51.8821 C   0  0  0  0  0  0  0  0  0  0  0  0
   44.6176  -32.6238   48.5642 O   0  0  0  0  0  0  0  0  0  0  0  0
   50.1879  -31.6378   48.1251 Cl  0  0  0  0  0  0  0  0  0  0  0  0
   48.4772  -30.3905   51.9419 C   0  0  0  0  0  0  0  0  0  0  0  0
   47.6997  -30.5380   50.8165 C   0  0  0  0  0  0  0  0  0  0  0  0
   48.2473  -30.9620   49.6431 C   0  0  0  0  0  0  0  0  0  0  0  0
   49.5279  -31.2996   49.5981 C   0  0  0  0  0  0  0  0  0  0  0  0
   50.3124  -31.2524   50.7008 C   0  0  0  0  0  0  0  0  0  0  0  0
   46.2566  -30.4590   50.8827 C   0  0  0  0  0  0  0  0  0  0  0  0
   45.8447  -31.8081   50.3007 C   0  0  0  0  0  0  0  0  0  0  0  0
   44.4710  -31.8642   49.7349 C   0  0  0  0  0  0  0  0  0  0  0  0
  2  5  4  0  0  0  0
  5  6  4  0  0  0  0
  6  7  4  0  0  0  0
  4  8  1  0  0  0  0
  7  8  4  0  0  0  0
  2  9  4  0  0  0  0
  8  9  4  0  0  0  0
  1 10  1  0  0  0  0
  6 10  1  0  0  0  0
 10 11  1  0  0  0  0
 11 12  1  0  0  0  0
  3 12  1  0  0  0  0
 14 17  4  0  0  0  0
 17 18  4  0  0  0  0
 18 19  4  0  0  0  0
 16 20  1  0  0  0  0
 19 20  4  0  0  0  0
 14 21  4  0  0  0  0
 20 21  4  0  0  0  0
 13 22  1  0  0  0  0
 18 22  1  0  0  0  0
 22 23  1  0  0  0  0
 23 24  1  0  0  0  0
 15 24  1  0  0  0  0
M  END
$$$$
