5ST6
  PyMOL2.5          3D                             0

 10 11  0  0  0  0  0  0  0  0999 V2000
   24.7145    0.1023   19.1313 N   0  3  0  0  0  0  0  0  0  0  0  0
   28.6604    1.9883   19.7287 C   0  0  0  0  0  0  0  0  0  0  0  0
   26.8244    0.3365   16.6119 O   0  0  0  0  0  0  0  0  0  0  0  0
   28.9860    2.4251   18.4591 C   0  0  0  0  0  0  0  0  0  0  0  0
   28.3681    1.9206   17.3443 C   0  0  0  0  0  0  0  0  0  0  0  0
   27.4490    0.9730   17.5757 C   0  0  0  0  0  0  0  0  0  0  0  0
   27.0980    0.5391   18.8112 C   0  0  0  0  0  0  0  0  0  0  0  0
   27.7137    1.0533   19.9161 C   0  0  0  0  0  0  0  0  0  0  0  0
   26.0497   -0.4888   18.6554 C   0  0  0  0  0  0  0  0  0  0  0  0
   25.9595   -0.5999   17.1412 C   0  0  0  0  0  0  0  0  0  0  0  0
  2  4  4  0  0  0  0
  4  5  4  0  0  0  0
  3  6  1  0  0  0  0
  5  6  4  0  0  0  0
  6  7  4  0  0  0  0
  2  8  4  0  0  0  0
  7  8  4  0  0  0  0
  1  9  1  0  0  0  0
  7  9  1  0  0  0  0
  3 10  1  0  0  0  0
  9 10  1  0  0  0  0
M  END
$$$$
