5ST8
  PyMOL2.5          3D                             0

 12 12  0  0  0  0  0  0  0  0999 V2000
   28.0559   59.6734  -35.1933 C   0  0  0  0  0  0  0  0  0  0  0  0
   29.0200   58.8570  -35.7854 O   0  0  0  0  0  0  0  0  0  0  0  0
   28.6731   58.3917  -37.0222 C   0  0  0  0  0  0  0  0  0  0  0  0
   25.4503   60.7056  -39.9887 O   0  0  0  0  0  0  0  0  0  0  0  0
   29.6201   57.6790  -37.7323 C   0  0  0  0  0  0  0  0  0  0  0  0
   26.1911   59.3728  -41.5532 O   0  5  0  0  0  0  0  0  0  0  0  0
   29.2856   57.2132  -38.9965 C   0  0  0  0  0  0  0  0  0  0  0  0
   28.0383   57.4561  -39.5347 C   0  0  0  0  0  0  0  0  0  0  0  0
   27.1006   58.1730  -38.8051 C   0  0  0  0  0  0  0  0  0  0  0  0
   27.4243   58.6412  -37.5377 C   0  0  0  0  0  0  0  0  0  0  0  0
   25.7701   58.4090  -39.4021 C   0  0  0  0  0  0  0  0  0  0  0  0
   25.8141   59.6133  -40.4107 C   0  0  0  0  0  0  0  0  0  0  0  0
  1  2  1  0  0  0  0
  2  3  1  0  0  0  0
  3  5  4  0  0  0  0
  3 10  4  0  0  0  0
  5  7  4  0  0  0  0
  7  8  4  0  0  0  0
  8  9  4  0  0  0  0
  9 10  4  0  0  0  0
  9 11  1  0  0  0  0
 11 12  1  0  0  0  0
  4 12  4  0  0  0  0
  6 12  4  0  0  0  0
M  END
$$$$
