5ST9
  PyMOL2.5          3D                             0

 15 15  0  0  0  0  0  0  0  0999 V2000
   18.3373  -11.0209  -37.2277 N   0  0  0  0  0  0  0  0  0  0  0  0
   15.0769   -8.6607  -38.8312 C   0  0  0  0  0  0  0  0  0  0  0  0
   16.4473  -11.7764  -36.2741 O   0  0  0  0  0  0  0  0  0  0  0  0
   15.0451   -9.8934  -37.9678 C   0  0  0  0  0  0  0  0  0  0  0  0
   21.1745  -11.4159  -38.0115 N   0  3  0  0  0  0  0  0  0  0  0  0
   24.4786  -12.1495  -38.5451 O   0  0  0  0  0  0  0  0  0  0  0  0
   16.1483  -10.8419  -38.4258 C   0  0  0  0  0  0  0  0  0  0  0  0
   23.4075  -11.7846  -36.5986 O   0  5  0  0  0  0  0  0  0  0  0  0
   16.9570  -11.2560  -37.2263 C   0  0  0  0  0  0  0  0  0  0  0  0
   18.9444  -10.3807  -38.3842 C   0  0  0  0  0  0  0  0  0  0  0  0
   20.0250  -11.2874  -38.9885 C   0  0  0  0  0  0  0  0  0  0  0  0
   20.6678  -11.7031  -36.6170 C   0  0  0  0  0  0  0  0  0  0  0  0
   19.1806  -12.0425  -36.6052 C   0  0  0  0  0  0  0  0  0  0  0  0
   22.1276  -12.4957  -38.4631 C   0  0  0  0  0  0  0  0  0  0  0  0
   23.5156  -12.1005  -37.8210 C   0  0  0  0  0  0  0  0  0  0  0  0
  2  4  1  0  0  0  0
  4  7  1  0  0  0  0
  5 11  1  0  0  0  0
  5 12  1  0  0  0  0
  5 14  1  0  0  0  0
  1  9  1  0  0  0  0
  3  9  2  0  0  0  0
  7  9  1  0  0  0  0
  1 10  1  0  0  0  0
 10 11  1  0  0  0  0
  1 13  1  0  0  0  0
 12 13  1  0  0  0  0
 14 15  1  0  0  0  0
  6 15  4  0  0  0  0
  8 15  4  0  0  0  0
M  END
$$$$
