5STE
  PyMOL2.5          3D                             0

 13 13  0  0  0  0  0  0  0  0999 V2000
   17.7738   11.7516   28.8369 N   0  0  0  0  0  0  0  0  0  0  0  0
   18.2768   10.4272   30.6042 C   0  0  0  0  0  0  0  0  0  0  0  0
   17.2169    9.9004   32.7694 O   0  0  0  0  0  0  0  0  0  0  0  0
   18.8848    9.8477   29.4981 C   0  0  0  0  0  0  0  0  0  0  0  0
   17.6226   11.5832   30.1420 N   0  0  0  0  0  0  0  0  0  0  0  0
   19.3230    9.3933   32.5660 O   0  0  0  0  0  0  0  0  0  0  0  0
   18.5330   10.7071   28.4134 C   0  0  0  0  0  0  0  0  0  0  0  0
   16.8668   12.5045   30.9660 C   0  0  0  0  0  0  0  0  0  0  0  0
   18.8821   10.4913   26.9785 C   0  0  0  0  0  0  0  0  0  0  0  0
   18.2706    9.9118   31.9854 B   0  0  0  0  0  0  0  0  0  0  0  0
   19.1160   11.6234   26.2861 F   0  0  0  0  0  0  0  0  0  0  0  0
   17.8724    9.8978   26.3033 F   0  0  0  0  0  0  0  0  0  0  0  0
   19.9649    9.6952   26.7465 F   0  0  0  0  0  0  0  0  0  0  0  0
  2 10  1  0  0  0  0
  2  4  4  0  0  0  0
  4  7  4  0  0  0  0
  1  5  4  0  0  0  0
  2  5  4  0  0  0  0
  5  8  1  0  0  0  0
  6 10  1  0  0  0  0
  1  7  4  0  0  0  0
  7  9  1  0  0  0  0
  9 11  1  0  0  0  0
  9 12  1  0  0  0  0
  9 13  1  0  0  0  0
  3 10  1  0  0  0  0
M  END
$$$$
