5STG
  PyMOL2.5          3D                             0

 24 24  0  0  0  0  0  0  0  0999 V2000
   53.0096   54.4200   15.7125 C   0  0  0  0  0  0  0  0  0  0  0  0
   53.6197   51.7596   18.8820 O   0  0  0  0  0  0  0  0  0  0  0  0
   51.8771   54.0046   16.4860 C   0  0  0  0  0  0  0  0  0  0  0  0
   51.9768   55.7665   13.8593 O   0  0  0  0  0  0  0  0  0  0  0  0
   52.0624   53.1591   17.6195 C   0  0  0  0  0  0  0  0  0  0  0  0
   54.1263   55.3391   13.8257 O   0  0  0  0  0  0  0  0  0  0  0  0
   53.3910   52.7610   17.9368 C   0  0  0  0  0  0  0  0  0  0  0  0
   54.4591   53.2165   17.1917 C   0  0  0  0  0  0  0  0  0  0  0  0
   54.2698   54.0169   16.1073 C   0  0  0  0  0  0  0  0  0  0  0  0
   52.6005   51.0767   19.5757 C   0  0  0  0  0  0  0  0  0  0  0  0
   53.3123   50.8084   20.8885 C   0  0  0  0  0  0  0  0  0  0  0  0
   52.9873   55.2009   14.4867 B   0  0  0  0  0  0  0  0  0  0  0  0
   61.3714   40.6866   14.7777 C   0  0  0  0  0  0  0  0  0  0  0  0
   59.7259   44.4026   14.1141 O   0  0  0  0  0  0  0  0  0  0  0  0
   62.0347   41.6665   14.0529 C   0  0  0  0  0  0  0  0  0  0  0  0
   63.0440   38.8320   14.4599 O   0  0  0  0  0  0  0  0  0  0  0  0
   61.4971   42.9233   13.8601 C   0  0  0  0  0  0  0  0  0  0  0  0
   61.3794   38.4658   15.7969 O   0  0  0  0  0  0  0  0  0  0  0  0
   60.2317   43.1934   14.3935 C   0  0  0  0  0  0  0  0  0  0  0  0
   59.5388   42.2281   15.1068 C   0  0  0  0  0  0  0  0  0  0  0  0
   60.1283   40.9981   15.2910 C   0  0  0  0  0  0  0  0  0  0  0  0
   60.4779   45.3175   13.3247 C   0  0  0  0  0  0  0  0  0  0  0  0
   59.4952   46.4393   13.0126 C   0  0  0  0  0  0  0  0  0  0  0  0
   61.9393   39.3319   14.9771 B   0  0  0  0  0  0  0  0  0  0  0  0
  1  3  4  0  0  0  0
  3  5  4  0  0  0  0
  4 12  1  0  0  0  0
  6 12  1  0  0  0  0
  2  7  1  0  0  0  0
  5  7  4  0  0  0  0
  7  8  4  0  0  0  0
  1  9  4  0  0  0  0
  8  9  4  0  0  0  0
  2 10  1  0  0  0  0
 10 11  1  0  0  0  0
  1 12  1  0  0  0  0
 13 15  4  0  0  0  0
 15 17  4  0  0  0  0
 16 24  1  0  0  0  0
 18 24  1  0  0  0  0
 14 19  1  0  0  0  0
 17 19  4  0  0  0  0
 19 20  4  0  0  0  0
 13 21  4  0  0  0  0
 20 21  4  0  0  0  0
 14 22  1  0  0  0  0
 22 23  1  0  0  0  0
 13 24  1  0  0  0  0
M  END
$$$$
