5STJ
  PyMOL2.5          3D                             0

 22 22  0  0  0  0  0  0  0  0999 V2000
  -26.3464   19.9706  -10.7797 N   0  3  0  0  0  0  0  0  0  0  0  0
  -24.8330   25.5966   -8.3305 C   0  0  0  0  0  0  0  0  0  0  0  0
  -25.1107   23.1995   -7.2623 O   0  0  0  0  0  0  0  0  0  0  0  0
  -25.1569   24.4806   -9.1797 C   0  0  0  0  0  0  0  0  0  0  0  0
  -25.2852   24.6147  -10.5393 C   0  0  0  0  0  0  0  0  0  0  0  0
  -25.6558   23.5129  -11.3648 C   0  0  0  0  0  0  0  0  0  0  0  0
  -25.8839   22.2970  -10.7899 C   0  0  0  0  0  0  0  0  0  0  0  0
  -25.7800   22.1400   -9.3901 C   0  0  0  0  0  0  0  0  0  0  0  0
  -25.3837   23.2675   -8.5991 C   0  0  0  0  0  0  0  0  0  0  0  0
  -24.9660   21.9597   -6.6951 C   0  0  0  0  0  0  0  0  0  0  0  0
  -26.1445   21.1727  -11.6745 C   0  0  0  0  0  0  0  0  0  0  0  0
    7.4179   27.0142   -7.1252 N   0  3  0  0  0  0  0  0  0  0  0  0
    7.0063   33.4448   -7.2205 C   0  0  0  0  0  0  0  0  0  0  0  0
    5.6152   31.6920   -5.6305 O   0  0  0  0  0  0  0  0  0  0  0  0
    7.0182   32.0095   -7.4705 C   0  0  0  0  0  0  0  0  0  0  0  0
    7.6689   31.5164   -8.5617 C   0  0  0  0  0  0  0  0  0  0  0  0
    7.6863   30.1658   -8.8093 C   0  0  0  0  0  0  0  0  0  0  0  0
    7.0659   29.2813   -7.9677 C   0  0  0  0  0  0  0  0  0  0  0  0
    6.4085   29.7384   -6.8391 C   0  0  0  0  0  0  0  0  0  0  0  0
    6.3666   31.1014   -6.6092 C   0  0  0  0  0  0  0  0  0  0  0  0
    4.9556   30.8621   -4.6934 C   0  0  0  0  0  0  0  0  0  0  0  0
    7.0632   27.8681   -8.3493 C   0  0  0  0  0  0  0  0  0  0  0  0
  2  4  1  0  0  0  0
  4  5  4  0  0  0  0
  4  9  4  0  0  0  0
  5  6  4  0  0  0  0
  6  7  4  0  0  0  0
  7  8  4  0  0  0  0
  8  9  4  0  0  0  0
  3  9  1  0  0  0  0
  3 10  1  0  0  0  0
  1 11  1  0  0  0  0
  7 11  1  0  0  0  0
 13 15  1  0  0  0  0
 15 16  4  0  0  0  0
 15 20  4  0  0  0  0
 16 17  4  0  0  0  0
 17 18  4  0  0  0  0
 18 19  4  0  0  0  0
 19 20  4  0  0  0  0
 14 20  1  0  0  0  0
 14 21  1  0  0  0  0
 12 22  1  0  0  0  0
 18 22  1  0  0  0  0
M  END
$$$$
