5STK
  PyMOL2.5          3D                             0

 12 12  0  0  0  0  0  0  0  0999 V2000
   75.6345   54.1910   46.5708 N   0  3  0  0  0  0  0  0  0  0  0  0
   71.0650   53.1864   50.3666 C   0  0  0  0  0  0  0  0  0  0  0  0
   72.1418   52.3031   50.6305 O   0  0  0  0  0  0  0  0  0  0  0  0
   73.3696   52.6271   50.1363 C   0  0  0  0  0  0  0  0  0  0  0  0
   73.4530   55.7168   47.0856 O   0  0  0  0  0  0  0  0  0  0  0  0
   74.2847   51.6654   50.4955 C   0  0  0  0  0  0  0  0  0  0  0  0
   75.5964   51.8052   50.1032 C   0  0  0  0  0  0  0  0  0  0  0  0
   75.9825   52.8910   49.3471 C   0  0  0  0  0  0  0  0  0  0  0  0
   75.0651   53.8506   48.9569 C   0  0  0  0  0  0  0  0  0  0  0  0
   73.7507   53.7261   49.3803 C   0  0  0  0  0  0  0  0  0  0  0  0
   75.5199   54.8462   47.9089 C   0  0  0  0  0  0  0  0  0  0  0  0
   74.5973   56.0326   47.8406 C   0  0  0  0  0  0  0  0  0  0  0  0
  2  3  1  0  0  0  0
  3  4  1  0  0  0  0
  4  6  4  0  0  0  0
  4 10  4  0  0  0  0
  6  7  4  0  0  0  0
  7  8  4  0  0  0  0
  8  9  4  0  0  0  0
  9 10  4  0  0  0  0
  1 11  1  0  0  0  0
  9 11  1  0  0  0  0
 11 12  1  0  0  0  0
  5 12  1  0  0  0  0
M  END
$$$$
