5STL
  PyMOL2.5          3D                             0

 28 28  0  0  0  0  0  0  0  0999 V2000
   56.7098  -26.8440   51.1875 N   0  3  0  0  0  0  0  0  0  0  0  0
   58.2492  -28.1694   48.2300 C   0  0  0  0  0  0  0  0  0  0  0  0
   56.0217  -27.2507   52.2135 O   0  0  0  0  0  0  0  0  0  0  0  0
   59.2275  -27.7936   47.3230 C   0  0  0  0  0  0  0  0  0  0  0  0
   56.0319  -28.6807   50.0018 N   0  0  0  0  0  0  0  0  0  0  0  0
   59.6192  -26.5125   47.3385 C   0  0  0  0  0  0  0  0  0  0  0  0
   59.0252  -25.6302   48.2234 C   0  0  0  0  0  0  0  0  0  0  0  0
   58.1111  -25.9617   49.0917 C   0  0  0  0  0  0  0  0  0  0  0  0
   57.7283  -27.2500   49.1020 C   0  0  0  0  0  0  0  0  0  0  0  0
   56.7678  -27.6360   50.1307 C   0  0  0  0  0  0  0  0  0  0  0  0
   60.8034  -25.9255   46.4082 C   0  0  0  0  0  0  0  0  0  0  0  0
   61.9597  -25.7839   46.9516 F   0  0  0  0  0  0  0  0  0  0  0  0
   61.0866  -26.6585   45.3934 F   0  0  0  0  0  0  0  0  0  0  0  0
   60.5964  -24.7069   45.9156 F   0  0  0  0  0  0  0  0  0  0  0  0
   49.0726   -0.8227   28.6074 N   0  3  0  0  0  0  0  0  0  0  0  0
   52.2881   -2.4317   28.8014 C   0  0  0  0  0  0  0  0  0  0  0  0
   48.1527   -1.5116   29.2715 O   0  0  0  0  0  0  0  0  0  0  0  0
   52.8325   -3.7054   28.7715 C   0  0  0  0  0  0  0  0  0  0  0  0
   51.1629    0.0848   29.2972 N   0  0  0  0  0  0  0  0  0  0  0  0
   52.0096   -4.7928   28.9650 C   0  0  0  0  0  0  0  0  0  0  0  0
   50.6537   -4.6545   29.1972 C   0  0  0  0  0  0  0  0  0  0  0  0
   50.1027   -3.3842   29.2273 C   0  0  0  0  0  0  0  0  0  0  0  0
   50.9339   -2.2911   29.0192 C   0  0  0  0  0  0  0  0  0  0  0  0
   50.3788   -0.9457   28.9871 C   0  0  0  0  0  0  0  0  0  0  0  0
   52.5895   -6.1976   28.9348 C   0  0  0  0  0  0  0  0  0  0  0  0
   53.7900   -6.2644   28.3824 F   0  0  0  0  0  0  0  0  0  0  0  0
   52.7044   -6.7040   30.1551 F   0  0  0  0  0  0  0  0  0  0  0  0
   51.8442   -7.0604   28.2568 F   0  0  0  0  0  0  0  0  0  0  0  0
  1  3  1  0  0  0  0
  2  4  4  0  0  0  0
  4  6  4  0  0  0  0
  5 10  4  0  0  0  0
  6  7  4  0  0  0  0
  7  8  4  0  0  0  0
  2  9  4  0  0  0  0
  8  9  4  0  0  0  0
  9 10  1  0  0  0  0
  1 10  4  0  0  0  0
  6 11  1  0  0  0  0
 11 12  1  0  0  0  0
 11 13  1  0  0  0  0
 11 14  1  0  0  0  0
 15 17  1  0  0  0  0
 16 18  4  0  0  0  0
 18 20  4  0  0  0  0
 19 24  4  0  0  0  0
 20 21  4  0  0  0  0
 21 22  4  0  0  0  0
 16 23  4  0  0  0  0
 22 23  4  0  0  0  0
 23 24  1  0  0  0  0
 15 24  4  0  0  0  0
 20 25  1  0  0  0  0
 25 26  1  0  0  0  0
 25 27  1  0  0  0  0
 25 28  1  0  0  0  0
M  END
$$$$
