5STN
  PyMOL2.5          3D                             0

 15 16  0  0  0  0  0  0  0  0999 V2000
   13.6145   28.1030   -6.7196 N   0  3  0  0  0  0  0  0  0  0  0  0
   12.6049   26.9869   -6.6694 C   0  0  0  0  0  0  0  0  0  0  0  0
   13.4843   29.0793   -5.5487 C   0  0  0  0  0  0  0  0  0  0  0  0
   14.1132   31.6831   -3.3427 N   0  0  0  0  0  0  0  0  0  0  0  0
   12.5348   30.2720   -5.8325 C   0  0  0  0  0  0  0  0  0  0  0  0
   14.5961   31.2074   -1.1083 N   0  0  0  0  0  0  0  0  0  0  0  0
   11.2430   30.0945   -5.0526 C   0  0  0  0  0  0  0  0  0  0  0  0
   14.2417   30.2618   -3.2195 N   0  0  0  0  0  0  0  0  0  0  0  0
   10.2140   31.1613   -5.4688 C   0  0  0  0  0  0  0  0  0  0  0  0
   10.7736   32.5868   -5.4777 C   0  0  0  0  0  0  0  0  0  0  0  0
   12.1444   32.6612   -6.1699 C   0  0  0  0  0  0  0  0  0  0  0  0
   13.0910   31.6767   -5.5133 C   0  0  0  0  0  0  0  0  0  0  0  0
   12.8951   31.9474   -4.0497 C   0  0  0  0  0  0  0  0  0  0  0  0
   14.0267   32.2239   -1.9569 C   0  0  0  0  0  0  0  0  0  0  0  0
   14.2459   29.9700   -1.7785 C   0  0  0  0  0  0  0  0  0  0  0  0
  1  2  1  0  0  0  0
  1  3  1  0  0  0  0
  3  5  1  0  0  0  0
  4  8  1  0  0  0  0
  4 13  1  0  0  0  0
  4 14  1  0  0  0  0
  6 14  1  0  0  0  0
  6 15  1  0  0  0  0
  5  7  1  0  0  0  0
  8 15  1  0  0  0  0
  7  9  1  0  0  0  0
  9 10  1  0  0  0  0
 10 11  1  0  0  0  0
  5 12  1  0  0  0  0
 11 12  1  0  0  0  0
 12 13  1  0  0  0  0
M  END
$$$$
