5STQ
  PyMOL2.5          3D                             0

 17 18  0  0  0  0  0  0  0  0999 V2000
   35.8325   26.8200   26.5096 N   0  0  0  0  0  0  0  0  0  0  0  0
   33.6990   26.6773   25.3639 C   0  0  0  0  0  0  0  0  0  0  0  0
   35.6117   27.7279   24.5059 O   0  0  0  0  0  0  0  0  0  0  0  0
   35.1170   27.1108   25.4050 C   0  0  0  0  0  0  0  0  0  0  0  0
   35.9093   29.9247   28.3805 O   0  0  0  0  0  0  0  0  0  0  0  0
   35.2564   26.1586   27.6819 C   0  0  0  0  0  0  0  0  0  0  0  0
   36.0286   29.7132   26.2220 O   0  5  0  0  0  0  0  0  0  0  0  0
   35.9258   24.8193   27.8891 C   0  0  0  0  0  0  0  0  0  0  0  0
   37.4280   24.9116   27.7941 C   0  0  0  0  0  0  0  0  0  0  0  0
   38.2151   23.8883   28.3071 C   0  0  0  0  0  0  0  0  0  0  0  0
   39.5929   23.9474   28.2298 C   0  0  0  0  0  0  0  0  0  0  0  0
   40.2023   25.0198   27.6404 C   0  0  0  0  0  0  0  0  0  0  0  0
   39.4408   26.0475   27.1201 C   0  0  0  0  0  0  0  0  0  0  0  0
   38.0525   26.0096   27.1908 C   0  0  0  0  0  0  0  0  0  0  0  0
   37.2603   27.1612   26.6121 C   0  0  0  0  0  0  0  0  0  0  0  0
   37.4872   28.3908   27.4895 C   0  0  0  0  0  0  0  0  0  0  0  0
   36.3814   29.4228   27.3568 C   0  0  0  0  0  0  0  0  0  0  0  0
  1  4  1  0  0  0  0
  2  4  1  0  0  0  0
  3  4  2  0  0  0  0
  5 17  4  0  0  0  0
  1  6  1  0  0  0  0
  7 17  4  0  0  0  0
  6  8  1  0  0  0  0
  8  9  1  0  0  0  0
  9 10  4  0  0  0  0
 10 11  4  0  0  0  0
 11 12  4  0  0  0  0
 12 13  4  0  0  0  0
 13 14  4  0  0  0  0
  9 14  4  0  0  0  0
 14 15  1  0  0  0  0
  1 15  1  0  0  0  0
 15 16  1  0  0  0  0
 16 17  1  0  0  0  0
M  END
$$$$
