5STS
  PyMOL2.5          3D                             0

 14 15  0  0  0  0  0  0  0  0999 V2000
   38.7970   27.6897   16.2076 N   0  0  0  0  0  0  0  0  0  0  0  0
   43.1919   30.5255   13.3742 C   0  0  0  0  0  0  0  0  0  0  0  0
   41.4170   28.9554   14.0223 O   0  0  0  0  0  0  0  0  0  0  0  0
   42.8288   29.2088   14.0290 C   0  0  0  0  0  0  0  0  0  0  0  0
   36.5584   27.2134   16.8075 N   0  0  0  0  0  0  0  0  0  0  0  0
   41.4997   28.4352   16.1690 O   0  0  0  0  0  0  0  0  0  0  0  0
   40.8700   28.5076   15.1681 C   0  0  0  0  0  0  0  0  0  0  0  0
   39.4533   28.2674   15.1150 C   0  0  0  0  0  0  0  0  0  0  0  0
   38.7175   28.6837   14.1011 C   0  0  0  0  0  0  0  0  0  0  0  0
   37.4991   27.7153   15.9602 C   0  0  0  0  0  0  0  0  0  0  0  0
   35.1241   27.2874   16.5966 C   0  0  0  0  0  0  0  0  0  0  0  0
   34.3522   27.5718   17.8642 C   0  0  0  0  0  0  0  0  0  0  0  0
   34.1915   26.2440   17.2094 C   0  0  0  0  0  0  0  0  0  0  0  0
   37.1141   28.4202   14.4414 S   0  0  0  0  0  0  0  0  0  0  0  0
  2  4  1  0  0  0  0
  3  4  1  0  0  0  0
  5 10  1  0  0  0  0
  5 11  1  0  0  0  0
  6  7  2  0  0  0  0
  3  7  1  0  0  0  0
  1  8  4  0  0  0  0
  7  8  1  0  0  0  0
  8  9  4  0  0  0  0
  9 14  4  0  0  0  0
  1 10  4  0  0  0  0
 10 14  4  0  0  0  0
 11 12  1  0  0  0  0
 12 13  1  0  0  0  0
 11 13  1  0  0  0  0
M  END
$$$$
