5STT
  PyMOL2.5          3D                             0

 14 14  0  0  0  0  0  0  0  0999 V2000
   17.0159    0.0667   31.6821 C   0  0  0  0  0  0  0  0  0  0  0  0
   17.7778    0.8561   32.5478 O   0  0  0  0  0  0  0  0  0  0  0  0
   17.2530    0.9017   33.8489 C   0  0  0  0  0  0  0  0  0  0  0  0
   17.6115    2.5055   35.4664 O   0  0  0  0  0  0  0  0  0  0  0  0
   17.0380    2.3965   34.1881 C   0  0  0  0  0  0  0  0  0  0  0  0
   16.8727    4.9830   33.4155 O   0  0  0  0  0  0  0  0  0  0  0  0
   17.3331    3.6175   36.2271 C   0  0  0  0  0  0  0  0  0  0  0  0
   14.9841    5.4392   34.4385 O   0  5  0  0  0  0  0  0  0  0  0  0
   17.7351    3.5016   37.5531 C   0  0  0  0  0  0  0  0  0  0  0  0
   17.5587    4.5709   38.4154 C   0  0  0  0  0  0  0  0  0  0  0  0
   17.0100    5.7444   37.9765 C   0  0  0  0  0  0  0  0  0  0  0  0
   16.6043    5.8546   36.6677 C   0  0  0  0  0  0  0  0  0  0  0  0
   16.7394    4.8143   35.7767 C   0  0  0  0  0  0  0  0  0  0  0  0
   16.1541    5.0939   34.4112 C   0  0  0  0  0  0  0  0  0  0  0  0
  1  2  1  0  0  0  0
  2  3  1  0  0  0  0
  3  5  1  0  0  0  0
  4  5  1  0  0  0  0
  4  7  1  0  0  0  0
  7  9  4  0  0  0  0
  9 10  4  0  0  0  0
 10 11  4  0  0  0  0
 11 12  4  0  0  0  0
 12 13  4  0  0  0  0
  7 13  4  0  0  0  0
 13 14  1  0  0  0  0
  6 14  4  0  0  0  0
  8 14  4  0  0  0  0
M  END
$$$$
