5STV
  PyMOL2.5          3D                             0

 12 12  0  0  0  0  0  0  0  0999 V2000
    4.6603  -38.6260   42.9348 N   0  0  0  0  0  0  0  0  0  0  0  0
    5.4029  -39.8056   44.9989 C   0  0  0  0  0  0  0  0  0  0  0  0
    6.4696  -37.4866   43.5173 O   0  0  0  0  0  0  0  0  0  0  0  0
    4.3299  -38.9573   44.3237 C   0  0  0  0  0  0  0  0  0  0  0  0
    5.7433  -37.8710   42.6348 C   0  0  0  0  0  0  0  0  0  0  0  0
    6.0431  -37.5364   41.2109 C   0  0  0  0  0  0  0  0  0  0  0  0
    7.2887  -37.0226   40.9530 C   0  0  0  0  0  0  0  0  0  0  0  0
    7.6391  -36.6631   39.6772 C   0  0  0  0  0  0  0  0  0  0  0  0
    6.7627  -36.8192   38.6398 C   0  0  0  0  0  0  0  0  0  0  0  0
    5.5079  -37.3311   38.8780 C   0  0  0  0  0  0  0  0  0  0  0  0
    5.1874  -37.6617   40.1576 C   0  0  0  0  0  0  0  0  0  0  0  0
    3.4090  -38.2306   40.4199 Br  0  0  0  0  0  0  0  0  0  0  0  0
  1  4  1  0  0  0  0
  2  4  1  0  0  0  0
  1  5  1  0  0  0  0
  3  5  2  0  0  0  0
  5  6  1  0  0  0  0
  6  7  4  0  0  0  0
  7  8  4  0  0  0  0
  8  9  4  0  0  0  0
  9 10  4  0  0  0  0
 10 11  4  0  0  0  0
  6 11  4  0  0  0  0
 11 12  1  0  0  0  0
M  END
$$$$
