5STW
  PyMOL2.5          3D                             0

 11 11  0  0  0  0  0  0  0  0999 V2000
   37.3497   46.0964   26.1914 N   0  0  0  0  0  0  0  0  0  0  0  0
   37.6066   44.3203   27.9686 C   0  0  0  0  0  0  0  0  0  0  0  0
   37.7039   46.6031   28.2040 O   0  0  0  0  0  0  0  0  0  0  0  0
   37.4936   45.7290   27.4955 C   0  0  0  0  0  0  0  0  0  0  0  0
   37.5682   45.4288   25.0751 N   0  0  0  0  0  0  0  0  0  0  0  0
   38.8879   45.7798   24.6638 C   0  0  0  0  0  0  0  0  0  0  0  0
   39.9832   45.1848   25.1503 C   0  0  0  0  0  0  0  0  0  0  0  0
   41.1854   45.5892   24.7205 C   0  0  0  0  0  0  0  0  0  0  0  0
   41.2807   46.5679   23.8009 C   0  0  0  0  0  0  0  0  0  0  0  0
   40.1786   47.1695   23.3223 C   0  0  0  0  0  0  0  0  0  0  0  0
   38.9903   46.7954   23.7486 C   0  0  0  0  0  0  0  0  0  0  0  0
  1  4  1  0  0  0  0
  2  4  1  0  0  0  0
  3  4  2  0  0  0  0
  1  5  1  0  0  0  0
  5  6  1  0  0  0  0
  6  7  4  0  0  0  0
  7  8  4  0  0  0  0
  8  9  4  0  0  0  0
  9 10  4  0  0  0  0
  6 11  4  0  0  0  0
 10 11  4  0  0  0  0
M  END
$$$$
