5STY
  PyMOL2.5          3D                             0

 34 34  0  0  0  0  0  0  0  0999 V2000
  -35.4324    0.3043  -24.7020 N   0  0  0  0  0  0  0  0  0  0  0  0
  -33.0903    3.4017  -22.8675 C   0  0  0  0  0  0  0  0  0  0  0  0
  -34.3954    2.2312  -24.3794 O   0  0  0  0  0  0  0  0  0  0  0  0
  -34.2541    3.4715  -23.6434 C   0  0  0  0  0  0  0  0  0  0  0  0
  -36.1066    1.4905  -29.2157 N   0  0  0  0  0  0  0  0  0  0  0  0
  -35.8551    1.5132  -22.8595 O   0  0  0  0  0  0  0  0  0  0  0  0
  -35.2770    1.3697  -23.8924 C   0  0  0  0  0  0  0  0  0  0  0  0
  -35.0127   -0.4443  -28.8775 O   0  0  0  0  0  0  0  0  0  0  0  0
  -36.3475   -0.8121  -24.4398 C   0  0  0  0  0  0  0  0  0  0  0  0
  -35.4655    1.8334  -30.4178 O   0  0  0  0  0  0  0  0  0  0  0  0
  -37.5939   -0.7040  -25.2965 C   0  0  0  0  0  0  0  0  0  0  0  0
  -37.2447   -0.5748  -26.7733 C   0  0  0  0  0  0  0  0  0  0  0  0
  -36.1914    0.5121  -27.0201 C   0  0  0  0  0  0  0  0  0  0  0  0
  -34.9885    0.3280  -26.0924 C   0  0  0  0  0  0  0  0  0  0  0  0
  -35.7061    0.4755  -28.4563 C   0  0  0  0  0  0  0  0  0  0  0  0
  -35.1943    0.7291  -31.2851 C   0  0  0  0  0  0  0  0  0  0  0  0
  -36.6319    1.4906  -26.8319 H   0  0  0  0  0  0  0  0  0  0  0  0
  -32.1945    3.2625  -23.4703 H   0  0  0  0  0  0  0  0  0  0  0  0
  -33.1037    2.5793  -22.1529 H   0  0  0  0  0  0  0  0  0  0  0  0
  -32.9462    4.3212  -22.3023 H   0  0  0  0  0  0  0  0  0  0  0  0
  -35.1314    3.6589  -23.0258 H   0  0  0  0  0  0  0  0  0  0  0  0
  -34.1995    4.2811  -24.3705 H   0  0  0  0  0  0  0  0  0  0  0  0
  -35.8350   -1.7470  -24.6598 H   0  0  0  0  0  0  0  0  0  0  0  0
  -36.6236   -0.9059  -23.3906 H   0  0  0  0  0  0  0  0  0  0  0  0
  -38.2117    0.1357  -24.9820 H   0  0  0  0  0  0  0  0  0  0  0  0
  -38.2269   -1.5786  -25.1548 H   0  0  0  0  0  0  0  0  0  0  0  0
  -38.1419   -0.3438  -27.3460 H   0  0  0  0  0  0  0  0  0  0  0  0
  -36.9083   -1.5334  -27.1652 H   0  0  0  0  0  0  0  0  0  0  0  0
  -34.4524   -0.5974  -26.2978 H   0  0  0  0  0  0  0  0  0  0  0  0
  -34.2609    1.1183  -26.2679 H   0  0  0  0  0  0  0  0  0  0  0  0
  -36.7218    2.2444  -28.9278 H   0  0  0  0  0  0  0  0  0  0  0  0
  -34.3196    0.1646  -30.9658 H   0  0  0  0  0  0  0  0  0  0  0  0
  -36.0879    0.1161  -31.1796 H   0  0  0  0  0  0  0  0  0  0  0  0
  -35.0824    1.0195  -32.3288 H   0  0  0  0  0  0  0  0  0  0  0  0
  2 18  1  0  0  0  0
  2 19  1  0  0  0  0
  2 20  1  0  0  0  0
  2  4  1  0  0  0  0
  3  4  1  0  0  0  0
  4 21  1  0  0  0  0
  4 22  1  0  0  0  0
  5 10  1  0  0  0  0
  5 15  1  0  0  0  0
  5 31  1  0  0  0  0
  6  7  2  0  0  0  0
  1  7  1  0  0  0  0
  3  7  1  0  0  0  0
  1  9  1  0  0  0  0
  9 23  1  0  0  0  0
  9 24  1  0  0  0  0
  9 11  1  0  0  0  0
 11 25  1  0  0  0  0
 11 26  1  0  0  0  0
 11 12  1  0  0  0  0
 12 13  1  0  0  0  0
 12 27  1  0  0  0  0
 12 28  1  0  0  0  0
 13 17  1  0  0  0  0
  1 14  1  0  0  0  0
 13 14  1  0  0  0  0
 14 29  1  0  0  0  0
 14 30  1  0  0  0  0
  8 15  2  0  0  0  0
 13 15  1  0  0  0  0
 10 16  1  0  0  0  0
 16 32  1  0  0  0  0
 16 33  1  0  0  0  0
 16 34  1  0  0  0  0
M  END
$$$$
