5STZ
  PyMOL2.5          3D                             0

 28 30  0  0  0  0  0  0  0  0999 V2000
   43.8746   40.5095    3.3530 N   0  0  0  0  0  0  0  0  0  0  0  0
   47.5780   41.1166    4.9387 C   0  0  0  0  0  0  0  0  0  0  0  0
   44.4652   36.5556    8.7576 O   0  0  0  0  0  0  0  0  0  0  0  0
   47.0267   42.1809    4.2056 C   0  0  0  0  0  0  0  0  0  0  0  0
   44.8126   35.3408    6.9262 N   0  0  0  0  0  0  0  0  0  0  0  0
   45.7853   42.0956    3.6188 C   0  0  0  0  0  0  0  0  0  0  0  0
   45.1132   40.8925    3.8035 C   0  0  0  0  0  0  0  0  0  0  0  0
   45.6611   39.8137    4.5455 C   0  0  0  0  0  0  0  0  0  0  0  0
   46.9131   39.9351    5.1145 C   0  0  0  0  0  0  0  0  0  0  0  0
   44.7036   38.7723    4.5307 C   0  0  0  0  0  0  0  0  0  0  0  0
   43.6359   39.2175    3.7953 C   0  0  0  0  0  0  0  0  0  0  0  0
   44.8612   37.5137    5.2479 C   0  0  0  0  0  0  0  0  0  0  0  0
   44.6655   37.7767    6.7338 C   0  0  0  0  0  0  0  0  0  0  0  0
   44.6429   36.5238    7.5577 C   0  0  0  0  0  0  0  0  0  0  0  0
   -6.0865   -3.3752   45.5126 N   0  0  0  0  0  0  0  0  0  0  0  0
   -9.1384   -1.4001   43.7068 C   0  0  0  0  0  0  0  0  0  0  0  0
   -7.4031   -2.8159   49.4374 O   0  0  0  0  0  0  0  0  0  0  0  0
   -8.6419   -2.5202   43.1008 C   0  0  0  0  0  0  0  0  0  0  0  0
   -9.5795   -2.5430   49.1704 N   0  0  0  0  0  0  0  0  0  0  0  0
   -7.6110   -3.1710   43.6316 C   0  0  0  0  0  0  0  0  0  0  0  0
   -7.0599   -2.7493   44.8648 C   0  0  0  0  0  0  0  0  0  0  0  0
   -7.6054   -1.6611   45.5258 C   0  0  0  0  0  0  0  0  0  0  0  0
   -8.6335   -0.9500   44.8766 C   0  0  0  0  0  0  0  0  0  0  0  0
   -6.9369   -1.6071   46.7653 C   0  0  0  0  0  0  0  0  0  0  0  0
   -6.0867   -2.6232   46.8038 C   0  0  0  0  0  0  0  0  0  0  0  0
   -7.0480   -0.5779   47.7287 C   0  0  0  0  0  0  0  0  0  0  0  0
   -8.2213   -0.6946   48.6390 C   0  0  0  0  0  0  0  0  0  0  0  0
   -8.3254   -2.1074   49.1211 C   0  0  0  0  0  0  0  0  0  0  0  0
  3 14  2  0  0  0  0
  2  4  4  0  0  0  0
  4  6  4  0  0  0  0
  5 14  1  0  0  0  0
  1  7  4  0  0  0  0
  6  7  4  0  0  0  0
  7  8  4  0  0  0  0
  2  9  4  0  0  0  0
  8  9  4  0  0  0  0
  8 10  4  0  0  0  0
  1 11  4  0  0  0  0
 10 11  4  0  0  0  0
 10 12  1  0  0  0  0
 12 13  1  0  0  0  0
 13 14  1  0  0  0  0
 17 28  2  0  0  0  0
 16 18  4  0  0  0  0
 18 20  4  0  0  0  0
 19 28  1  0  0  0  0
 15 21  4  0  0  0  0
 20 21  4  0  0  0  0
 21 22  4  0  0  0  0
 16 23  4  0  0  0  0
 22 23  4  0  0  0  0
 22 24  4  0  0  0  0
 15 25  4  0  0  0  0
 24 25  4  0  0  0  0
 24 26  1  0  0  0  0
 26 27  1  0  0  0  0
 27 28  1  0  0  0  0
M  END
$$$$
