5SU4
  PyMOL2.5          3D                             0

 48 48  0  0  0  0  0  0  0  0999 V2000
   20.2258   34.5668   16.4177 N   0  0  0  0  0  0  0  0  0  0  0  0
   21.8406   33.1557   16.8126 C   0  0  0  0  0  0  0  0  0  0  0  0
   20.4999   34.0546   18.6531 O   0  0  0  0  0  0  0  0  0  0  0  0
   20.7884   33.9539   17.4631 C   0  0  0  0  0  0  0  0  0  0  0  0
   19.2113   35.4358   16.4355 C   0  0  0  0  0  0  0  0  0  0  0  0
   18.4992   35.0062   15.2719 C   0  0  0  0  0  0  0  0  0  0  0  0
   17.2816   34.4284   15.4291 C   0  0  0  0  0  0  0  0  0  0  0  0
   16.5357   34.1498   14.3615 C   0  0  0  0  0  0  0  0  0  0  0  0
   17.0292   34.4758   13.1458 C   0  0  0  0  0  0  0  0  0  0  0  0
   18.2608   35.0319   13.0503 C   0  0  0  0  0  0  0  0  0  0  0  0
   19.0249   35.2891   14.1030 C   0  0  0  0  0  0  0  0  0  0  0  0
   18.9412   35.5481   11.3586 Br  0  0  0  0  0  0  0  0  0  0  0  0
   49.6161   46.9258  -58.1439 N   0  0  0  0  0  0  0  0  0  0  0  0
   51.3353   48.3899  -57.5925 C   0  0  0  0  0  0  0  0  0  0  0  0
   50.3733   48.1461  -59.7842 O   0  0  0  0  0  0  0  0  0  0  0  0
   50.4041   47.8493  -58.6130 C   0  0  0  0  0  0  0  0  0  0  0  0
   49.7155   46.4693  -56.8166 C   0  0  0  0  0  0  0  0  0  0  0  0
   50.4489   45.1842  -56.8278 C   0  0  0  0  0  0  0  0  0  0  0  0
   49.7807   44.1224  -57.3885 C   0  0  0  0  0  0  0  0  0  0  0  0
   50.3417   42.8656  -57.3918 C   0  0  0  0  0  0  0  0  0  0  0  0
   51.5296   42.6477  -56.8304 C   0  0  0  0  0  0  0  0  0  0  0  0
   52.1829   43.7166  -56.2575 C   0  0  0  0  0  0  0  0  0  0  0  0
   51.7128   45.0290  -56.2527 C   0  0  0  0  0  0  0  0  0  0  0  0
   53.6801   43.2637  -55.5080 Br  0  0  0  0  0  0  0  0  0  0  0  0
   65.4086   28.9733  -44.1838 N   0  0  0  0  0  0  0  0  0  0  0  0
   65.2130   28.2972  -41.8485 C   0  0  0  0  0  0  0  0  0  0  0  0
   65.3471   26.8863  -43.7200 O   0  0  0  0  0  0  0  0  0  0  0  0
   65.3411   27.9583  -43.3076 C   0  0  0  0  0  0  0  0  0  0  0  0
   65.2964   30.2960  -43.7669 C   0  0  0  0  0  0  0  0  0  0  0  0
   64.7361   31.1630  -44.8294 C   0  0  0  0  0  0  0  0  0  0  0  0
   65.5869   32.0441  -45.4154 C   0  0  0  0  0  0  0  0  0  0  0  0
   65.1300   32.8195  -46.3939 C   0  0  0  0  0  0  0  0  0  0  0  0
   63.8289   32.7424  -46.8043 C   0  0  0  0  0  0  0  0  0  0  0  0
   63.0085   31.8422  -46.1990 C   0  0  0  0  0  0  0  0  0  0  0  0
   63.4250   31.0535  -45.2099 C   0  0  0  0  0  0  0  0  0  0  0  0
   61.3626   31.6655  -46.8729 Br  0  0  0  0  0  0  0  0  0  0  0  0
   35.3737   27.3109  -34.5281 N   0  0  0  0  0  0  0  0  0  0  0  0
   33.9038   29.0842  -35.1323 C   0  0  0  0  0  0  0  0  0  0  0  0
   35.9420   29.2984  -33.8190 O   0  0  0  0  0  0  0  0  0  0  0  0
   35.1716   28.6109  -34.4534 C   0  0  0  0  0  0  0  0  0  0  0  0
   36.5224   26.7300  -33.9627 C   0  0  0  0  0  0  0  0  0  0  0  0
   37.6270   26.9071  -34.9273 C   0  0  0  0  0  0  0  0  0  0  0  0
   37.7671   25.8871  -35.8099 C   0  0  0  0  0  0  0  0  0  0  0  0
   38.8068   25.8368  -36.6532 C   0  0  0  0  0  0  0  0  0  0  0  0
   39.7338   26.8132  -36.6623 C   0  0  0  0  0  0  0  0  0  0  0  0
   39.5731   27.8101  -35.8336 C   0  0  0  0  0  0  0  0  0  0  0  0
   38.5241   27.9458  -34.8986 C   0  0  0  0  0  0  0  0  0  0  0  0
   40.8916   29.0559  -36.1077 Br  0  0  0  0  0  0  0  0  0  0  0  0
  1  4  1  0  0  0  0
  2  4  1  0  0  0  0
  3  4  2  0  0  0  0
  1  5  2  0  0  0  0
  5  6  1  0  0  0  0
  6  7  4  0  0  0  0
  7  8  4  0  0  0  0
  8  9  4  0  0  0  0
  9 10  4  0  0  0  0
 10 11  4  0  0  0  0
 10 12  1  0  0  0  0
  6 11  4  0  0  0  0
 13 16  1  0  0  0  0
 14 16  1  0  0  0  0
 15 16  2  0  0  0  0
 13 17  1  0  0  0  0
 17 18  1  0  0  0  0
 18 19  4  0  0  0  0
 19 20  4  0  0  0  0
 20 21  4  0  0  0  0
 21 22  4  0  0  0  0
 22 23  4  0  0  0  0
 22 24  1  0  0  0  0
 18 23  4  0  0  0  0
 25 28  1  0  0  0  0
 26 28  1  0  0  0  0
 27 28  2  0  0  0  0
 25 29  1  0  0  0  0
 29 30  1  0  0  0  0
 30 31  4  0  0  0  0
 31 32  4  0  0  0  0
 32 33  4  0  0  0  0
 33 34  4  0  0  0  0
 34 35  4  0  0  0  0
 34 36  1  0  0  0  0
 30 35  4  0  0  0  0
 37 40  1  0  0  0  0
 38 40  1  0  0  0  0
 39 40  2  0  0  0  0
 37 41  1  0  0  0  0
 41 42  1  0  0  0  0
 42 43  4  0  0  0  0
 43 44  4  0  0  0  0
 44 45  4  0  0  0  0
 45 46  4  0  0  0  0
 46 47  4  0  0  0  0
 46 48  1  0  0  0  0
 42 47  4  0  0  0  0
M  END
$$$$
