5SU5
  PyMOL2.5          3D                             0

 10 10  0  0  0  0  0  0  0  0999 V2000
   61.8021   51.0267  -30.5352 N   0  0  0  0  0  0  0  0  0  0  0  0
   61.2510   52.1084  -29.7295 C   0  0  0  0  0  0  0  0  0  0  0  0
   60.1353   51.1586  -31.9415 O   0  0  0  0  0  0  0  0  0  0  0  0
   62.9401   50.4431  -30.1529 C   0  0  0  0  0  0  0  0  0  0  0  0
   61.6471   49.5313  -32.4608 N   0  0  0  0  0  0  0  0  0  0  0  0
   63.4030   48.0981  -32.7604 O   0  5  0  0  0  0  0  0  0  0  0  0
   63.4090   49.3771  -30.9182 C   0  0  0  0  0  0  0  0  0  0  0  0
   62.8253   48.9154  -32.0862 C   0  0  0  0  0  0  0  0  0  0  0  0
   61.1293   50.5790  -31.6940 C   0  0  0  0  0  0  0  0  0  0  0  0
   65.0672   48.6594  -30.3636 Br  0  0  0  0  0  0  0  0  0  0  0  0
  1  2  1  0  0  0  0
  1  4  4  0  0  0  0
  4  7  4  0  0  0  0
  5  8  4  0  0  0  0
  5  9  4  0  0  0  0
  6  8  2  0  0  0  0
  7 10  1  0  0  0  0
  7  8  4  0  0  0  0
  1  9  4  0  0  0  0
  3  9  2  0  0  0  0
M  END
$$$$
