5SU6
  PyMOL2.5          3D                             0

 14 15  0  0  0  0  0  0  0  0999 V2000
   31.7340  -28.2630  -17.1563 N   0  0  0  0  0  0  0  0  0  0  0  0
   34.0149  -29.4911  -16.7480 C   0  0  0  0  0  0  0  0  0  0  0  0
   32.3157  -29.2235  -14.9544 O   0  0  0  0  0  0  0  0  0  0  0  0
   30.4746  -27.6438  -16.7956 C   0  0  0  0  0  0  0  0  0  0  0  0
   31.8630  -30.6764  -16.7651 O   0  0  0  0  0  0  0  0  0  0  0  0
   32.0017  -25.4863  -15.9112 S   0  0  0  0  0  0  0  0  0  0  0  0
   30.5763  -26.1864  -16.5163 C   0  0  0  0  0  0  0  0  0  0  0  0
   29.5862  -25.2730  -16.6639 C   0  0  0  0  0  0  0  0  0  0  0  0
   29.9985  -23.9770  -16.2675 C   0  0  0  0  0  0  0  0  0  0  0  0
   31.2809  -23.9627  -15.8444 C   0  0  0  0  0  0  0  0  0  0  0  0
   32.2799  -27.7739  -18.3830 C   0  0  0  0  0  0  0  0  0  0  0  0
   31.7541  -28.2978  -19.7192 C   0  0  0  0  0  0  0  0  0  0  0  0
   31.4218  -26.8982  -19.2859 C   0  0  0  0  0  0  0  0  0  0  0  0
   32.4249  -29.4944  -16.3054 S   0  0  0  0  0  0  0  0  0  0  0  0
  1  4  1  0  0  0  0
  4  7  1  0  0  0  0
  5 14  2  0  0  0  0
  6  7  4  0  0  0  0
  7  8  4  0  0  0  0
  8  9  4  0  0  0  0
  6 10  4  0  0  0  0
  9 10  4  0  0  0  0
  1 11  1  0  0  0  0
 11 12  1  0  0  0  0
 12 13  1  0  0  0  0
 11 13  1  0  0  0  0
  1 14  1  0  0  0  0
  2 14  1  0  0  0  0
  3 14  2  0  0  0  0
M  END
$$$$
