5SU7
  PyMOL2.5          3D                             0

 13 13  0  0  0  0  0  0  0  0999 V2000
    7.5047   -1.0046   37.3546 N   0  3  0  0  0  0  0  0  0  0  0  0
    7.0815   -0.7782   34.8792 C   0  0  0  0  0  0  0  0  0  0  0  0
    7.0233   -1.7391   36.0657 C   0  0  0  0  0  0  0  0  0  0  0  0
    7.9132   -2.9638   35.8270 C   0  0  0  0  0  0  0  0  0  0  0  0
    7.0705   -4.0043   35.1077 C   0  0  0  0  0  0  0  0  0  0  0  0
    7.9458   -4.7681   34.1983 C   0  0  0  0  0  0  0  0  0  0  0  0
    7.3573   -5.4515   33.1667 C   0  0  0  0  0  0  0  0  0  0  0  0
    8.0995   -6.2052   32.3021 C   0  0  0  0  0  0  0  0  0  0  0  0
    9.4499   -6.2629   32.4875 C   0  0  0  0  0  0  0  0  0  0  0  0
   10.0523   -5.5540   33.5115 C   0  0  0  0  0  0  0  0  0  0  0  0
    9.3005   -4.7988   34.3897 C   0  0  0  0  0  0  0  0  0  0  0  0
   11.3446   -5.5908   33.6184 F   0  0  0  0  0  0  0  0  0  0  0  0
   10.1705   -7.0183   31.7244 F   0  0  0  0  0  0  0  0  0  0  0  0
  1  3  1  0  0  0  0
  2  3  1  0  0  0  0
  3  4  1  0  0  0  0
  4  5  1  0  0  0  0
  5  6  1  0  0  0  0
  6  7  4  0  0  0  0
  7  8  4  0  0  0  0
  8  9  4  0  0  0  0
  9 10  4  0  0  0  0
  9 13  1  0  0  0  0
 10 11  4  0  0  0  0
 10 12  1  0  0  0  0
  6 11  4  0  0  0  0
M  END
$$$$
