5SU9
  PyMOL2.5          3D                             0

 40 40  0  0  0  0  0  0  0  0999 V2000
   44.4344  -16.0222   21.7360 N   0  0  0  0  0  0  0  0  0  0  0  0
   40.4327  -10.7875   17.9229 C   0  0  0  0  0  0  0  0  0  0  0  0
   46.1719  -16.4575   23.6356 O   0  0  0  0  0  0  0  0  0  0  0  0
   41.5494  -11.5721   18.5100 C   0  0  0  0  0  0  0  0  0  0  0  0
   44.8607  -16.7292   25.3239 N   0  0  0  0  0  0  0  0  0  0  0  0
   42.2338  -12.5281   17.8950 C   0  0  0  0  0  0  0  0  0  0  0  0
   43.1211  -13.2582   18.5461 C   0  0  0  0  0  0  0  0  0  0  0  0
   43.3917  -12.9914   19.8651 C   0  0  0  0  0  0  0  0  0  0  0  0
   42.6912  -11.9811   20.4326 C   0  0  0  0  0  0  0  0  0  0  0  0
   41.7977  -11.3185   19.7521 C   0  0  0  0  0  0  0  0  0  0  0  0
   44.4107  -13.8006   20.6288 C   0  0  0  0  0  0  0  0  0  0  0  0
   44.8444  -13.3692   22.0051 C   0  0  0  0  0  0  0  0  0  0  0  0
   45.6165  -13.9550   19.8299 C   0  0  0  0  0  0  0  0  0  0  0  0
   43.6328  -15.0649   20.9558 C   0  0  0  0  0  0  0  0  0  0  0  0
   44.4084  -17.3631   21.1857 C   0  0  0  0  0  0  0  0  0  0  0  0
   43.9372  -16.0977   23.1913 C   0  0  0  0  0  0  0  0  0  0  0  0
   45.1007  -16.4516   24.0571 C   0  0  0  0  0  0  0  0  0  0  0  0
   45.4009  -15.7154   21.7217 H   0  0  0  0  0  0  0  0  0  0  0  0
   40.1009  -10.0123   18.6027 H   0  0  0  0  0  0  0  0  0  0  0  0
   39.5636  -11.3988   17.6864 H   0  0  0  0  0  0  0  0  0  0  0  0
   40.7278  -10.2966   16.9965 H   0  0  0  0  0  0  0  0  0  0  0  0
   42.0667  -12.7175   16.8359 H   0  0  0  0  0  0  0  0  0  0  0  0
   43.5326  -14.0963   17.9861 H   0  0  0  0  0  0  0  0  0  0  0  0
   42.7832  -11.6093   21.4463 H   0  0  0  0  0  0  0  0  0  0  0  0
   41.2354  -10.5479   20.2505 H   0  0  0  0  0  0  0  0  0  0  0  0
   45.4553  -14.1067   22.5243 H   0  0  0  0  0  0  0  0  0  0  0  0
   43.9949  -13.1444   22.6363 H   0  0  0  0  0  0  0  0  0  0  0  0
   45.4343  -12.4553   21.9604 H   0  0  0  0  0  0  0  0  0  0  0  0
   45.3776  -14.3932   18.8615 H   0  0  0  0  0  0  0  0  0  0  0  0
   46.3698  -14.6028   20.2769 H   0  0  0  0  0  0  0  0  0  0  0  0
   46.0980  -13.0064   19.6000 H   0  0  0  0  0  0  0  0  0  0  0  0
   42.7200  -14.8261   21.5005 H   0  0  0  0  0  0  0  0  0  0  0  0
   43.3213  -15.5342   20.0246 H   0  0  0  0  0  0  0  0  0  0  0  0
   45.4149  -17.7368   21.0061 H   0  0  0  0  0  0  0  0  0  0  0  0
   43.8778  -17.4127   20.2364 H   0  0  0  0  0  0  0  0  0  0  0  0
   43.9056  -18.0579   21.8570 H   0  0  0  0  0  0  0  0  0  0  0  0
   43.1436  -16.8372   23.2911 H   0  0  0  0  0  0  0  0  0  0  0  0
   43.4952  -15.1494   23.4946 H   0  0  0  0  0  0  0  0  0  0  0  0
   43.9138  -16.6999   25.6872 H   0  0  0  0  0  0  0  0  0  0  0  0
   45.5885  -16.9793   25.9856 H   0  0  0  0  0  0  0  0  0  0  0  0
  1 14  1  0  0  0  0
  1 15  1  0  0  0  0
  1 18  1  0  0  0  0
  2 19  1  0  0  0  0
  2 20  1  0  0  0  0
  2 21  1  0  0  0  0
  3 17  2  0  0  0  0
  2  4  1  0  0  0  0
  4  6  4  0  0  0  0
  4 10  4  0  0  0  0
  5 17  1  0  0  0  0
  5 39  1  0  0  0  0
  5 40  1  0  0  0  0
  6 22  1  0  0  0  0
  6  7  4  0  0  0  0
  7 23  1  0  0  0  0
  7  8  4  0  0  0  0
  8  9  4  0  0  0  0
  9 10  4  0  0  0  0
  9 24  1  0  0  0  0
 10 25  1  0  0  0  0
  8 11  1  0  0  0  0
 11 12  1  0  0  0  0
 11 13  1  0  0  0  0
 11 14  1  0  0  0  0
 12 26  1  0  0  0  0
 12 27  1  0  0  0  0
 12 28  1  0  0  0  0
 13 29  1  0  0  0  0
 13 30  1  0  0  0  0
 13 31  1  0  0  0  0
 14 32  1  0  0  0  0
 14 33  1  0  0  0  0
 15 34  1  0  0  0  0
 15 35  1  0  0  0  0
 15 36  1  0  0  0  0
  1 16  1  0  0  0  0
 16 37  1  0  0  0  0
 16 38  1  0  0  0  0
 16 17  1  0  0  0  0
M  END
$$$$
