5SUA
  PyMOL2.5          3D                             0

 11 11  0  0  0  0  0  0  0  0999 V2000
  -19.5375  -17.3037    2.8847 N   0  0  0  0  0  0  0  0  0  0  0  0
  -19.4168  -16.9917    1.5027 C   0  0  0  0  0  0  0  0  0  0  0  0
  -21.3180  -16.0227    3.0365 O   0  0  0  0  0  0  0  0  0  0  0  0
  -17.9276  -17.1734    1.1046 C   0  0  0  0  0  0  0  0  0  0  0  0
  -23.7195  -17.8982    4.4805 N   0  0  0  0  0  0  0  0  0  0  0  0
  -17.4942  -18.5052    3.4747 C   0  0  0  0  0  0  0  0  0  0  0  0
  -18.9868  -18.6258    3.2050 C   0  0  0  0  0  0  0  0  0  0  0  0
  -20.6896  -16.9359    3.4841 C   0  0  0  0  0  0  0  0  0  0  0  0
  -21.1611  -17.7047    4.7066 C   0  0  0  0  0  0  0  0  0  0  0  0
  -22.5842  -17.8163    4.5957 C   0  0  0  0  0  0  0  0  0  0  0  0
  -16.8159  -17.1685    2.5081 S   0  0  0  0  0  0  0  0  0  0  0  0
  1  2  1  0  0  0  0
  2  4  1  0  0  0  0
  4 11  1  0  0  0  0
  5 10  3  0  0  0  0
  6 11  1  0  0  0  0
  1  7  1  0  0  0  0
  6  7  1  0  0  0  0
  1  8  1  0  0  0  0
  3  8  2  0  0  0  0
  8  9  1  0  0  0  0
  9 10  1  0  0  0  0
M  END
$$$$
