5SUB
  PyMOL2.5          3D                             0

 48 48  0  0  0  0  0  0  0  0999 V2000
   49.2677  -14.1682   21.3372 N   0  0  0  0  0  0  0  0  0  0  0  0
   53.9341  -14.9761   22.7114 C   0  0  0  0  0  0  0  0  0  0  0  0
   50.1350  -13.3825   23.3050 O   0  0  0  0  0  0  0  0  0  0  0  0
   52.5919  -14.3146   23.0056 C   0  0  0  0  0  0  0  0  0  0  0  0
   52.2380  -12.8357   21.0099 N   0  3  0  0  0  0  0  0  0  0  0  0
   51.7465  -14.0965   21.7354 C   0  0  0  0  0  0  0  0  0  0  0  0
   50.2930  -13.8496   22.1953 C   0  0  0  0  0  0  0  0  0  0  0  0
   49.5732  -14.2066   19.8947 C   0  0  0  0  0  0  0  0  0  0  0  0
   47.8580  -13.8681   21.6927 C   0  0  0  0  0  0  0  0  0  0  0  0
   47.3355  -12.8442   20.7533 C   0  0  0  0  0  0  0  0  0  0  0  0
   46.4319  -13.2084   19.7873 C   0  0  0  0  0  0  0  0  0  0  0  0
   45.9509  -12.2403   18.9187 C   0  0  0  0  0  0  0  0  0  0  0  0
   46.3685  -10.9196   19.0065 C   0  0  0  0  0  0  0  0  0  0  0  0
   47.2799  -10.5397   19.9721 C   0  0  0  0  0  0  0  0  0  0  0  0
   47.7418  -11.5109   20.8318 C   0  0  0  0  0  0  0  0  0  0  0  0
   48.5763  -11.1483   21.7759 F   0  0  0  0  0  0  0  0  0  0  0  0
  -18.9526   31.4811    0.9459 N   0  0  0  0  0  0  0  0  0  0  0  0
  -17.7566   28.5768    1.9356 C   0  0  0  0  0  0  0  0  0  0  0  0
  -19.9391   31.1199    2.9658 O   0  0  0  0  0  0  0  0  0  0  0  0
  -16.8908   29.7689    2.2627 C   0  0  0  0  0  0  0  0  0  0  0  0
  -17.8132   30.6372    4.4411 N   0  3  0  0  0  0  0  0  0  0  0  0
  -17.5696   30.9524    2.9655 C   0  0  0  0  0  0  0  0  0  0  0  0
  -18.9401   31.1835    2.2864 C   0  0  0  0  0  0  0  0  0  0  0  0
  -17.8096   32.2551    0.4221 C   0  0  0  0  0  0  0  0  0  0  0  0
  -20.2264   31.7986    0.3160 C   0  0  0  0  0  0  0  0  0  0  0  0
  -20.5531   30.7671   -0.6797 C   0  0  0  0  0  0  0  0  0  0  0  0
  -20.2120   30.9355   -1.9839 C   0  0  0  0  0  0  0  0  0  0  0  0
  -20.5921   29.9883   -2.9132 C   0  0  0  0  0  0  0  0  0  0  0  0
  -21.3143   28.8709   -2.5217 C   0  0  0  0  0  0  0  0  0  0  0  0
  -21.6569   28.6907   -1.2128 C   0  0  0  0  0  0  0  0  0  0  0  0
  -21.2593   29.6545   -0.3203 C   0  0  0  0  0  0  0  0  0  0  0  0
  -21.5785   29.5172    0.9266 F   0  0  0  0  0  0  0  0  0  0  0  0
  -10.5338   32.9583   -1.2365 N   0  0  0  0  0  0  0  0  0  0  0  0
   -8.5818   32.3968    2.6472 C   0  0  0  0  0  0  0  0  0  0  0  0
   -8.3708   33.4631   -1.8104 O   0  0  0  0  0  0  0  0  0  0  0  0
   -8.6004   33.0558    1.2831 C   0  0  0  0  0  0  0  0  0  0  0  0
   -7.1973   31.6062   -0.2475 N   0  3  0  0  0  0  0  0  0  0  0  0
   -8.6281   32.0811    0.0959 C   0  0  0  0  0  0  0  0  0  0  0  0
   -9.1728   32.9017   -1.0825 C   0  0  0  0  0  0  0  0  0  0  0  0
  -11.0422   33.0399   -2.6140 C   0  0  0  0  0  0  0  0  0  0  0  0
  -11.4123   32.2196   -0.3239 C   0  0  0  0  0  0  0  0  0  0  0  0
  -12.0206   31.1029   -1.0728 C   0  0  0  0  0  0  0  0  0  0  0  0
  -11.2389   30.1100   -1.5893 C   0  0  0  0  0  0  0  0  0  0  0  0
  -11.8293   29.0818   -2.2812 C   0  0  0  0  0  0  0  0  0  0  0  0
  -13.1924   29.0378   -2.4713 C   0  0  0  0  0  0  0  0  0  0  0  0
  -13.9921   30.0234   -1.9479 C   0  0  0  0  0  0  0  0  0  0  0  0
  -13.3886   31.0355   -1.2564 C   0  0  0  0  0  0  0  0  0  0  0  0
  -14.1304   31.9710   -0.7245 F   0  0  0  0  0  0  0  0  0  0  0  0
  2  4  1  0  0  0  0
  4  6  1  0  0  0  0
  5  6  1  0  0  0  0
  1  7  1  0  0  0  0
  3  7  2  0  0  0  0
  6  7  1  0  0  0  0
  1  8  1  0  0  0  0
  1  9  1  0  0  0  0
  9 10  1  0  0  0  0
 10 15  4  0  0  0  0
 10 11  4  0  0  0  0
 11 12  4  0  0  0  0
 12 13  4  0  0  0  0
 13 14  4  0  0  0  0
 14 15  4  0  0  0  0
 15 16  1  0  0  0  0
 18 20  1  0  0  0  0
 20 22  1  0  0  0  0
 21 22  1  0  0  0  0
 17 23  1  0  0  0  0
 19 23  2  0  0  0  0
 22 23  1  0  0  0  0
 17 24  1  0  0  0  0
 17 25  1  0  0  0  0
 25 26  1  0  0  0  0
 26 31  4  0  0  0  0
 26 27  4  0  0  0  0
 27 28  4  0  0  0  0
 28 29  4  0  0  0  0
 29 30  4  0  0  0  0
 30 31  4  0  0  0  0
 31 32  1  0  0  0  0
 34 36  1  0  0  0  0
 36 38  1  0  0  0  0
 37 38  1  0  0  0  0
 33 39  1  0  0  0  0
 35 39  2  0  0  0  0
 38 39  1  0  0  0  0
 33 40  1  0  0  0  0
 33 41  1  0  0  0  0
 41 42  1  0  0  0  0
 42 47  4  0  0  0  0
 42 43  4  0  0  0  0
 43 44  4  0  0  0  0
 44 45  4  0  0  0  0
 45 46  4  0  0  0  0
 46 47  4  0  0  0  0
 47 48  1  0  0  0  0
M  END
$$$$
