5SUC
  PyMOL2.5          3D                             0

 14 14  0  0  0  0  0  0  0  0999 V2000
   21.3053    3.8147   25.1419 N   0  0  0  0  0  0  0  0  0  0  0  0
   19.9711    4.3646   25.3015 C   0  0  0  0  0  0  0  0  0  0  0  0
   20.5921    1.1156   23.5631 O   0  0  0  0  0  0  0  0  0  0  0  0
   21.4188    2.3896   25.4000 C   0  0  0  0  0  0  0  0  0  0  0  0
   23.1014    3.7906   23.7828 O   0  0  0  0  0  0  0  0  0  0  0  0
   20.2314    1.6075   24.8034 C   0  0  0  0  0  0  0  0  0  0  0  0
   22.2771    4.4496   24.3732 C   0  0  0  0  0  0  0  0  0  0  0  0
   22.2919    5.9688   24.2877 C   0  0  0  0  0  0  0  0  0  0  0  0
   21.0836    6.4341   23.5764 C   0  0  0  0  0  0  0  0  0  0  0  0
   20.7015    5.7998   22.4101 C   0  0  0  0  0  0  0  0  0  0  0  0
   19.6101    6.2454   21.7175 C   0  0  0  0  0  0  0  0  0  0  0  0
   18.8883    7.3250   22.1914 C   0  0  0  0  0  0  0  0  0  0  0  0
   19.2600    7.9481   23.3643 C   0  0  0  0  0  0  0  0  0  0  0  0
   20.3637    7.5014   24.0627 C   0  0  0  0  0  0  0  0  0  0  0  0
  1  2  1  0  0  0  0
  1  4  1  0  0  0  0
  4  6  1  0  0  0  0
  5  7  2  0  0  0  0
  3  6  1  0  0  0  0
  1  7  1  0  0  0  0
  7  8  1  0  0  0  0
  8  9  1  0  0  0  0
  9 10  4  0  0  0  0
  9 14  4  0  0  0  0
 10 11  4  0  0  0  0
 11 12  4  0  0  0  0
 12 13  4  0  0  0  0
 13 14  4  0  0  0  0
M  END
$$$$
