5SUD
  PyMOL2.5          3D                             0

 28 28  0  0  0  0  0  0  0  0999 V2000
   62.7079  -52.3554   12.2262 N   0  0  0  0  0  0  0  0  0  0  0  0
   64.2888  -54.7232   11.8037 C   0  0  0  0  0  0  0  0  0  0  0  0
   61.1123  -52.3657   13.7638 O   0  0  0  0  0  0  0  0  0  0  0  0
   63.6464  -54.2930   13.1131 C   0  0  0  0  0  0  0  0  0  0  0  0
   64.3887  -55.8250   15.1485 N   0  0  0  0  0  0  0  0  0  0  0  0
   63.7204  -52.7232   13.2324 C   0  0  0  0  0  0  0  0  0  0  0  0
   61.3875  -52.2545   12.6062 C   0  0  0  0  0  0  0  0  0  0  0  0
   60.3612  -51.9722   11.5682 C   0  0  0  0  0  0  0  0  0  0  0  0
   60.7410  -51.5583   10.3153 C   0  0  0  0  0  0  0  0  0  0  0  0
   59.7747  -51.4080    9.3315 C   0  0  0  0  0  0  0  0  0  0  0  0
   58.4449  -51.6666    9.6054 C   0  0  0  0  0  0  0  0  0  0  0  0
   58.0774  -52.0715   10.8595 C   0  0  0  0  0  0  0  0  0  0  0  0
   59.0356  -52.2137   11.8371 C   0  0  0  0  0  0  0  0  0  0  0  0
   64.1072  -55.1197   14.2533 C   0  0  0  0  0  0  0  0  0  0  0  0
   45.5431  -18.9655   13.4830 N   0  0  0  0  0  0  0  0  0  0  0  0
   42.7408  -18.7302   14.6558 C   0  0  0  0  0  0  0  0  0  0  0  0
   47.4948  -18.0695   14.1085 O   0  0  0  0  0  0  0  0  0  0  0  0
   43.9129  -17.8242   14.9724 C   0  0  0  0  0  0  0  0  0  0  0  0
   45.1996  -18.8425   16.9464 N   0  0  0  0  0  0  0  0  0  0  0  0
   44.8415  -17.7335   13.7515 C   0  0  0  0  0  0  0  0  0  0  0  0
   46.8986  -19.0263   13.6824 C   0  0  0  0  0  0  0  0  0  0  0  0
   47.5605  -20.3265   13.3661 C   0  0  0  0  0  0  0  0  0  0  0  0
   46.8343  -21.4947   13.4276 C   0  0  0  0  0  0  0  0  0  0  0  0
   47.4514  -22.6891   13.1586 C   0  0  0  0  0  0  0  0  0  0  0  0
   48.7879  -22.7399   12.8472 C   0  0  0  0  0  0  0  0  0  0  0  0
   49.5098  -21.5909   12.7971 C   0  0  0  0  0  0  0  0  0  0  0  0
   48.9094  -20.3758   13.0417 C   0  0  0  0  0  0  0  0  0  0  0  0
   44.6305  -18.3881   16.0848 C   0  0  0  0  0  0  0  0  0  0  0  0
  2  4  1  0  0  0  0
  4  6  1  0  0  0  0
  4 14  1  0  0  0  0
  5 14  3  0  0  0  0
  1  6  1  0  0  0  0
  1  7  1  0  0  0  0
  3  7  2  0  0  0  0
  7  8  1  0  0  0  0
  8  9  4  0  0  0  0
  9 10  4  0  0  0  0
 10 11  4  0  0  0  0
 11 12  4  0  0  0  0
 12 13  4  0  0  0  0
  8 13  4  0  0  0  0
 16 18  1  0  0  0  0
 18 20  1  0  0  0  0
 18 28  1  0  0  0  0
 19 28  3  0  0  0  0
 15 20  1  0  0  0  0
 15 21  1  0  0  0  0
 17 21  2  0  0  0  0
 21 22  1  0  0  0  0
 22 23  4  0  0  0  0
 23 24  4  0  0  0  0
 24 25  4  0  0  0  0
 25 26  4  0  0  0  0
 26 27  4  0  0  0  0
 22 27  4  0  0  0  0
M  END
$$$$
