5SUE
  PyMOL2.5          3D                             0

 51 51  0  0  0  0  0  0  0  0999 V2000
   59.9302    0.8688  -43.2454 N   0  0  0  0  0  0  0  0  0  0  0  0
   59.7972    2.5792  -45.5510 C   0  0  0  0  0  0  0  0  0  0  0  0
   61.2111   -0.9170  -43.7095 O   0  0  0  0  0  0  0  0  0  0  0  0
   59.5066    3.0716  -44.3669 C   0  0  0  0  0  0  0  0  0  0  0  0
   63.5828    0.2276  -43.8539 N   0  0  0  0  0  0  0  0  0  0  0  0
   62.6846    0.2866  -45.9069 O   0  0  0  0  0  0  0  0  0  0  0  0
   59.8250    2.3426  -43.1027 C   0  0  0  0  0  0  0  0  0  0  0  0
   58.7098    0.1342  -43.5780 C   0  0  0  0  0  0  0  0  0  0  0  0
   57.5803    0.9906  -44.0421 C   0  0  0  0  0  0  0  0  0  0  0  0
   56.3727    0.9039  -43.5065 C   0  0  0  0  0  0  0  0  0  0  0  0
   61.1710    0.2590  -43.4310 C   0  0  0  0  0  0  0  0  0  0  0  0
   62.4855    1.0573  -43.3111 C   0  0  0  0  0  0  0  0  0  0  0  0
   64.6134   -0.1594  -43.0208 C   0  0  0  0  0  0  0  0  0  0  0  0
   65.6294   -0.9213  -43.4779 C   0  0  0  0  0  0  0  0  0  0  0  0
   65.6451   -1.3556  -44.8370 C   0  0  0  0  0  0  0  0  0  0  0  0
   64.6488   -0.9906  -45.6669 C   0  0  0  0  0  0  0  0  0  0  0  0
   63.5643   -0.1548  -45.2065 C   0  0  0  0  0  0  0  0  0  0  0  0
   27.9291  -14.0845   27.8873 N   0  0  0  0  0  0  0  0  0  0  0  0
   28.2148  -13.9667   27.7466 N   0  0  0  0  0  0  0  0  0  0  0  0
   28.4928  -12.7107   31.1746 C   0  0  0  0  0  0  0  0  0  0  0  0
   28.4247  -12.6888   31.1472 C   0  0  0  0  0  0  0  0  0  0  0  0
   26.3452  -14.2506   26.3002 O   0  0  0  0  0  0  0  0  0  0  0  0
   26.2342  -14.3171   26.7159 O   0  0  0  0  0  0  0  0  0  0  0  0
   27.8590  -12.8215   30.0174 C   0  0  0  0  0  0  0  0  0  0  0  0
   27.9620  -12.8029   29.9130 C   0  0  0  0  0  0  0  0  0  0  0  0
   26.6204  -11.7208   25.6046 N   0  0  0  0  0  0  0  0  0  0  0  0
   25.7430  -11.7745   26.2090 N   0  0  0  0  0  0  0  0  0  0  0  0
   25.9958  -11.4938   27.7476 O   0  0  0  0  0  0  0  0  0  0  0  0
   27.4421  -11.5636   24.7372 O   0  0  0  0  0  0  0  0  0  0  0  0
   28.5913  -13.0899   28.7351 C   0  0  0  0  0  0  0  0  0  0  0  0
   28.8658  -13.1203   28.7599 C   0  0  0  0  0  0  0  0  0  0  0  0
   28.5005  -15.4221   27.8918 C   0  0  0  0  0  0  0  0  0  0  0  0
   28.5353  -15.3994   27.7608 C   0  0  0  0  0  0  0  0  0  0  0  0
   29.9932  -15.4950   27.9059 C   0  0  0  0  0  0  0  0  0  0  0  0
   30.0024  -15.7050   27.8336 C   0  0  0  0  0  0  0  0  0  0  0  0
   30.6131  -16.3560   28.6923 C   0  0  0  0  0  0  0  0  0  0  0  0
   30.4991  -16.4472   28.8082 C   0  0  0  0  0  0  0  0  0  0  0  0
   27.3024  -13.6377   26.7474 C   0  0  0  0  0  0  0  0  0  0  0  0
   27.0044  -13.5281   27.2377 C   0  0  0  0  0  0  0  0  0  0  0  0
   27.8206  -12.3702   26.0552 C   0  0  0  0  0  0  0  0  0  0  0  0
   26.6464  -12.0359   27.3289 C   0  0  0  0  0  0  0  0  0  0  0  0
   26.3989  -11.5734   24.2612 C   0  0  0  0  0  0  0  0  0  0  0  0
   24.3880  -11.7965   26.4461 C   0  0  0  0  0  0  0  0  0  0  0  0
   25.2201  -11.0834   23.8331 C   0  0  0  0  0  0  0  0  0  0  0  0
   23.5052  -11.6102   25.4367 C   0  0  0  0  0  0  0  0  0  0  0  0
   24.2307  -10.7137   24.7828 C   0  0  0  0  0  0  0  0  0  0  0  0
   23.9616  -11.3791   24.1116 C   0  0  0  0  0  0  0  0  0  0  0  0
   24.4464  -10.8310   26.0948 C   0  0  0  0  0  0  0  0  0  0  0  0
   25.2756  -11.3445   23.8519 C   0  0  0  0  0  0  0  0  0  0  0  0
   25.6881  -11.3525   26.5789 C   0  0  0  0  0  0  0  0  0  0  0  0
   26.2503  -11.5472   24.9057 C   0  0  0  0  0  0  0  0  0  0  0  0
  2  4  1  0  0  0  0
  4  7  1  0  0  0  0
  5 12  1  0  0  0  0
  5 13  4  0  0  0  0
  5 17  4  0  0  0  0
  6 17  2  0  0  0  0
  1  7  1  0  0  0  0
  1  8  1  0  0  0  0
  8  9  1  0  0  0  0
  9 10  1  0  0  0  0
  1 11  1  0  0  0  0
  3 11  2  0  0  0  0
 11 12  1  0  0  0  0
 13 14  4  0  0  0  0
 14 15  4  0  0  0  0
 15 16  4  0  0  0  0
 16 17  4  0  0  0  0
 20 24  1  0  0  0  0
 24 30  1  0  0  0  0
 21 25  1  0  0  0  0
 25 31  1  0  0  0  0
 26 40  1  0  0  0  0
 26 42  4  0  0  0  0
 26 50  4  0  0  0  0
 27 41  1  0  0  0  0
 27 43  4  0  0  0  0
 27 51  4  0  0  0  0
 28 50  2  0  0  0  0
 29 51  2  0  0  0  0
 18 30  1  0  0  0  0
 19 31  1  0  0  0  0
 18 32  1  0  0  0  0
 19 33  1  0  0  0  0
 32 34  1  0  0  0  0
 33 35  1  0  0  0  0
 34 36  1  0  0  0  0
 35 37  1  0  0  0  0
 18 38  1  0  0  0  0
 22 38  2  0  0  0  0
 19 39  1  0  0  0  0
 23 39  2  0  0  0  0
 38 40  1  0  0  0  0
 39 41  1  0  0  0  0
 42 44  4  0  0  0  0
 43 45  4  0  0  0  0
 44 46  4  0  0  0  0
 45 47  4  0  0  0  0
 46 48  4  0  0  0  0
 47 49  4  0  0  0  0
 48 50  4  0  0  0  0
 49 51  4  0  0  0  0
M  END
$$$$
