7FJW
  PyMOL2.5          3D                             0

 14 15  0  0  0  0  0  0  0  0999 V2000
   35.9699  -34.2325  -18.8817 N   0  0  0  0  0  0  0  0  0  0  0  0
   34.9583  -32.7921  -16.7454 C   0  0  0  0  0  0  0  0  0  0  0  0
   35.0443  -32.2174  -17.9521 C   0  0  0  0  0  0  0  0  0  0  0  0
   37.0673  -37.4430  -19.9389 N   0  0  0  0  0  0  0  0  0  0  0  0
   35.5639  -32.9870  -18.9896 C   0  0  0  0  0  0  0  0  0  0  0  0
   35.1832  -39.1928  -22.5545 N   0  0  0  0  0  0  0  0  0  0  0  0
   35.8575  -34.7365  -17.6943 C   0  0  0  0  0  0  0  0  0  0  0  0
   35.3856  -34.0960  -16.6021 C   0  0  0  0  0  0  0  0  0  0  0  0
   36.0194  -37.0926  -19.1616 C   0  0  0  0  0  0  0  0  0  0  0  0
   34.7442  -37.3579  -19.5320 C   0  0  0  0  0  0  0  0  0  0  0  0
   34.4789  -38.0234  -20.6769 C   0  0  0  0  0  0  0  0  0  0  0  0
   35.4758  -38.4358  -21.4611 C   0  0  0  0  0  0  0  0  0  0  0  0
   36.7972  -38.0991  -21.0567 C   0  0  0  0  0  0  0  0  0  0  0  0
   36.2991  -36.3488  -17.5217 S   0  0  0  0  0  0  0  0  0  0  0  0
  2  3  4  0  0  0  0
  3  5  4  0  0  0  0
  4  9  4  0  0  0  0
  4 13  4  0  0  0  0
  1  5  4  0  0  0  0
  1  7  4  0  0  0  0
  7 14  1  0  0  0  0
  2  8  4  0  0  0  0
  7  8  4  0  0  0  0
  9 10  4  0  0  0  0
  9 14  1  0  0  0  0
 10 11  4  0  0  0  0
 11 12  4  0  0  0  0
  6 12  1  0  0  0  0
 12 13  4  0  0  0  0
M  END
$$$$
