7FJX
  PyMOL2.5          3D                             0

 15 16  0  0  0  0  0  0  0  0999 V2000
   67.7341   -8.6993  -25.7297 N   0  0  0  0  0  0  0  0  0  0  0  0
   66.5391   -6.9318  -26.5067 C   0  0  0  0  0  0  0  0  0  0  0  0
   68.4855   -7.3853  -22.8675 O   0  0  0  0  0  0  0  0  0  0  0  0
   67.5625   -7.8781  -26.7758 C   0  0  0  0  0  0  0  0  0  0  0  0
   66.8362   -8.2808  -24.8126 N   0  0  0  0  0  0  0  0  0  0  0  0
   66.0846   -7.2106  -25.2425 C   0  0  0  0  0  0  0  0  0  0  0  0
   68.0166   -9.1166  -21.4858 N   0  0  0  0  0  0  0  0  0  0  0  0
   66.7414   -8.9139  -23.5149 C   0  0  0  0  0  0  0  0  0  0  0  0
   67.8390   -8.3830  -22.5929 C   0  0  0  0  0  0  0  0  0  0  0  0
   68.9686   -8.8850  -20.3967 C   0  0  0  0  0  0  0  0  0  0  0  0
   69.4401  -10.2387  -19.8208 C   0  0  0  0  0  0  0  0  0  0  0  0
   69.3628  -10.2690  -18.2916 C   0  0  0  0  0  0  0  0  0  0  0  0
   69.8121   -8.9876  -17.5992 C   0  0  0  0  0  0  0  0  0  0  0  0
   69.2944   -7.7336  -18.2752 C   0  0  0  0  0  0  0  0  0  0  0  0
   68.2574   -8.0571  -19.3264 C   0  0  0  0  0  0  0  0  0  0  0  0
  1  4  4  0  0  0  0
  2  4  4  0  0  0  0
  1  5  4  0  0  0  0
  5  6  4  0  0  0  0
  5  8  1  0  0  0  0
  2  6  4  0  0  0  0
  7  9  1  0  0  0  0
  7 10  1  0  0  0  0
  3  9  2  0  0  0  0
  8  9  1  0  0  0  0
 10 11  1  0  0  0  0
 10 15  1  0  0  0  0
 11 12  1  0  0  0  0
 12 13  1  0  0  0  0
 13 14  1  0  0  0  0
 14 15  1  0  0  0  0
M  END
$$$$
