7FJZ
  PyMOL2.5          3D                             0

 12 12  0  0  0  0  0  0  0  0999 V2000
   24.3739  -26.3306   47.5578 N   0  0  0  0  0  0  0  0  0  0  0  0
   25.4849  -25.6874   42.6453 C   0  0  0  0  0  0  0  0  0  0  0  0
   24.7740  -28.5670   47.3625 O   0  0  0  0  0  0  0  0  0  0  0  0
   24.1613  -25.5055   42.8311 C   0  0  0  0  0  0  0  0  0  0  0  0
   21.9535  -28.6506   47.1078 N   0  3  0  0  0  0  0  0  0  0  0  0
   23.4548  -26.3726   43.6124 C   0  0  0  0  0  0  0  0  0  0  0  0
   24.0807  -27.4285   44.2045 C   0  0  0  0  0  0  0  0  0  0  0  0
   25.3994  -27.6232   44.0405 C   0  0  0  0  0  0  0  0  0  0  0  0
   26.0958  -26.7625   43.2694 C   0  0  0  0  0  0  0  0  0  0  0  0
   23.3279  -28.4111   45.0167 C   0  0  0  0  0  0  0  0  0  0  0  0
   22.9014  -27.7399   46.3300 C   0  0  0  0  0  0  0  0  0  0  0  0
   24.1156  -27.5685   47.1486 C   0  0  0  0  0  0  0  0  0  0  0  0
  2  4  4  0  0  0  0
  4  6  4  0  0  0  0
  5 11  1  0  0  0  0
  6  7  4  0  0  0  0
  7  8  4  0  0  0  0
  2  9  4  0  0  0  0
  8  9  4  0  0  0  0
  7 10  1  0  0  0  0
 10 11  1  0  0  0  0
 11 12  1  0  0  0  0
  1 12  1  0  0  0  0
  3 12  2  0  0  0  0
M  END
$$$$
