7FK2
  PyMOL2.5          3D                             0

 14 15  0  0  0  0  0  0  0  0999 V2000
   -7.2185   41.0989   22.8082 N   0  0  0  0  0  0  0  0  0  0  0  0
   -3.6782   38.8524   22.9895 C   0  0  0  0  0  0  0  0  0  0  0  0
   -5.5115   42.5260   23.5158 O   0  0  0  0  0  0  0  0  0  0  0  0
   -4.3432   39.9614   23.3738 C   0  0  0  0  0  0  0  0  0  0  0  0
   -5.9370   42.4672   21.3268 O   0  0  0  0  0  0  0  0  0  0  0  0
   -5.8563   41.8727   22.4657 S   0  0  0  0  0  0  0  0  0  0  0  0
   -4.9130   40.6016   22.2864 C   0  0  0  0  0  0  0  0  0  0  0  0
   -9.5123   39.6327   23.4246 O   0  0  0  0  0  0  0  0  0  0  0  0
   -3.7439   38.6684   21.6458 C   0  0  0  0  0  0  0  0  0  0  0  0
   -7.6404   40.8079   24.1842 C   0  0  0  0  0  0  0  0  0  0  0  0
   -9.1170   40.4952   24.3647 C   0  0  0  0  0  0  0  0  0  0  0  0
   -9.4705   40.2215   22.2233 C   0  0  0  0  0  0  0  0  0  0  0  0
   -8.0511   40.4977   21.7932 C   0  0  0  0  0  0  0  0  0  0  0  0
   -4.5604   39.8017   20.9075 S   0  0  0  0  0  0  0  0  0  0  0  0
  2  4  4  0  0  0  0
  4  7  4  0  0  0  0
  5  6  2  0  0  0  0
  1  6  1  0  0  0  0
  3  6  2  0  0  0  0
  6  7  1  0  0  0  0
  7 14  4  0  0  0  0
  2  9  4  0  0  0  0
  9 14  4  0  0  0  0
  1 10  1  0  0  0  0
  8 11  1  0  0  0  0
 10 11  1  0  0  0  0
  8 12  1  0  0  0  0
  1 13  1  0  0  0  0
 12 13  1  0  0  0  0
M  END
$$$$
