7FK5
  PyMOL2.5          3D                             0

 28 30  0  0  0  0  0  0  0  0999 V2000
   12.2208   32.3896    2.2645 N   0  0  0  0  0  0  0  0  0  0  0  0
   11.6180   33.8434    5.2185 C   0  0  0  0  0  0  0  0  0  0  0  0
   12.6170   31.0770    4.1126 O   0  0  0  0  0  0  0  0  0  0  0  0
   10.9920   32.9223    4.1843 C   0  0  0  0  0  0  0  0  0  0  0  0
   10.6029   33.7478    3.0345 N   0  0  0  0  0  0  0  0  0  0  0  0
   11.3247   34.0085    0.8337 O   0  0  0  0  0  0  0  0  0  0  0  0
   12.0429   31.9960    3.5855 C   0  0  0  0  0  0  0  0  0  0  0  0
   11.3594   33.4560    1.9193 C   0  0  0  0  0  0  0  0  0  0  0  0
    9.9090   32.1204    4.8066 C   0  0  0  0  0  0  0  0  0  0  0  0
    9.1711   31.2029    4.0966 C   0  0  0  0  0  0  0  0  0  0  0  0
    8.1393   30.5252    4.7024 C   0  0  0  0  0  0  0  0  0  0  0  0
    7.8465   30.7633    6.0203 C   0  0  0  0  0  0  0  0  0  0  0  0
    8.5965   31.6820    6.7405 C   0  0  0  0  0  0  0  0  0  0  0  0
    9.6323   32.3615    6.1365 C   0  0  0  0  0  0  0  0  0  0  0  0
    1.6349    8.7773   -3.0364 N   0  0  0  0  0  0  0  0  0  0  0  0
   -0.9613    9.6613   -1.0557 C   0  0  0  0  0  0  0  0  0  0  0  0
    1.7139   10.8714   -2.0413 O   0  0  0  0  0  0  0  0  0  0  0  0
    0.4263    9.0481   -1.0165 C   0  0  0  0  0  0  0  0  0  0  0  0
    0.3409    7.6848   -1.5270 N   0  0  0  0  0  0  0  0  0  0  0  0
    1.0774    6.5228   -3.3844 O   0  0  0  0  0  0  0  0  0  0  0  0
    1.3240    9.7312   -2.0499 C   0  0  0  0  0  0  0  0  0  0  0  0
    1.0290    7.5298   -2.7171 C   0  0  0  0  0  0  0  0  0  0  0  0
    1.0530    9.1810    0.3315 C   0  0  0  0  0  0  0  0  0  0  0  0
    0.3789    8.8798    1.4981 C   0  0  0  0  0  0  0  0  0  0  0  0
    1.0418    8.9709    2.7085 C   0  0  0  0  0  0  0  0  0  0  0  0
    2.3492    9.3676    2.7826 C   0  0  0  0  0  0  0  0  0  0  0  0
    3.0191    9.6795    1.6209 C   0  0  0  0  0  0  0  0  0  0  0  0
    2.3788    9.5860    0.3975 C   0  0  0  0  0  0  0  0  0  0  0  0
  2  4  1  0  0  0  0
  4  7  1  0  0  0  0
  4  9  1  0  0  0  0
  4  5  1  0  0  0  0
  5  8  1  0  0  0  0
  6  8  2  0  0  0  0
  1  7  1  0  0  0  0
  3  7  2  0  0  0  0
  1  8  1  0  0  0  0
  9 10  4  0  0  0  0
 10 11  4  0  0  0  0
 11 12  4  0  0  0  0
 12 13  4  0  0  0  0
 13 14  4  0  0  0  0
  9 14  4  0  0  0  0
 16 18  1  0  0  0  0
 18 21  1  0  0  0  0
 18 23  1  0  0  0  0
 18 19  1  0  0  0  0
 19 22  1  0  0  0  0
 20 22  2  0  0  0  0
 15 21  1  0  0  0  0
 17 21  2  0  0  0  0
 15 22  1  0  0  0  0
 23 24  4  0  0  0  0
 24 25  4  0  0  0  0
 25 26  4  0  0  0  0
 26 27  4  0  0  0  0
 27 28  4  0  0  0  0
 23 28  4  0  0  0  0
M  END
$$$$
