7FKA
  PyMOL2.5          3D                             0

 45 45  0  0  0  0  0  0  0  0999 V2000
   21.6226    5.5259  -17.6889 N   0  0  0  0  0  0  0  0  0  0  0  0
   17.2874    5.6730  -17.1158 C   0  0  0  0  0  0  0  0  0  0  0  0
   18.1409    4.7943  -16.4089 O   0  0  0  0  0  0  0  0  0  0  0  0
   23.0453    8.9496  -18.3674 Cl  0  0  0  0  0  0  0  0  0  0  0  0
   19.5162    4.9157  -16.4802 C   0  0  0  0  0  0  0  0  0  0  0  0
   20.0568    4.0610  -15.8486 O   0  0  0  0  0  0  0  0  0  0  0  0
   20.2898    5.9949  -17.2916 C   0  0  0  0  0  0  0  0  0  0  0  0
   23.9027    5.7364  -17.5909 O   0  0  0  0  0  0  0  0  0  0  0  0
   22.7862    6.1192  -17.2609 C   0  0  0  0  0  0  0  0  0  0  0  0
   22.5632    7.2695  -16.3633 C   0  0  0  0  0  0  0  0  0  0  0  0
   22.1655    7.0086  -15.0871 C   0  0  0  0  0  0  0  0  0  0  0  0
   21.9083    8.0480  -14.1961 C   0  0  0  0  0  0  0  0  0  0  0  0
   22.0692    9.3295  -14.5881 C   0  0  0  0  0  0  0  0  0  0  0  0
   22.4629    9.5831  -15.8859 C   0  0  0  0  0  0  0  0  0  0  0  0
   22.6896    8.5506  -16.7479 C   0  0  0  0  0  0  0  0  0  0  0  0
   52.5029   18.8014   60.8192 N   0  0  0  0  0  0  0  0  0  0  0  0
   54.8181   22.5051   62.6212 C   0  0  0  0  0  0  0  0  0  0  0  0
   54.8478   21.1501   62.1959 O   0  0  0  0  0  0  0  0  0  0  0  0
   49.8826   16.9693   58.7465 Cl  0  0  0  0  0  0  0  0  0  0  0  0
   53.7037   20.3965   62.0202 C   0  0  0  0  0  0  0  0  0  0  0  0
   52.6934   21.0133   62.2317 O   0  0  0  0  0  0  0  0  0  0  0  0
   53.7072   18.9203   61.5778 C   0  0  0  0  0  0  0  0  0  0  0  0
   53.4341   20.2710   59.3333 O   0  0  0  0  0  0  0  0  0  0  0  0
   52.4407   19.5706   59.6707 C   0  0  0  0  0  0  0  0  0  0  0  0
   51.1955   19.5484   58.9014 C   0  0  0  0  0  0  0  0  0  0  0  0
   51.0321   20.7957   58.4976 C   0  0  0  0  0  0  0  0  0  0  0  0
   49.9130   21.3026   57.9639 C   0  0  0  0  0  0  0  0  0  0  0  0
   48.8685   20.5016   57.8439 C   0  0  0  0  0  0  0  0  0  0  0  0
   48.9382   19.1966   58.1835 C   0  0  0  0  0  0  0  0  0  0  0  0
   50.1112   18.6632   58.6881 C   0  0  0  0  0  0  0  0  0  0  0  0
   43.4103   40.0642   48.9541 N   0  0  0  0  0  0  0  0  0  0  0  0
   44.7006   41.8535   46.9809 C   0  0  0  0  0  0  0  0  0  0  0  0
   43.5846   42.6399   47.2709 O   0  0  0  0  0  0  0  0  0  0  0  0
   43.8613   36.6314   49.4141 Cl  0  0  0  0  0  0  0  0  0  0  0  0
   42.4802   42.0429   47.7545 C   0  0  0  0  0  0  0  0  0  0  0  0
   41.5435   42.7875   47.9465 O   0  0  0  0  0  0  0  0  0  0  0  0
   42.4288   40.5621   47.9949 C   0  0  0  0  0  0  0  0  0  0  0  0
   44.6346   39.1709   47.2889 O   0  0  0  0  0  0  0  0  0  0  0  0
   44.4779   39.3457   48.4777 C   0  0  0  0  0  0  0  0  0  0  0  0
   45.4235   38.7941   49.4681 C   0  0  0  0  0  0  0  0  0  0  0  0
   46.5360   39.5015   49.8751 C   0  0  0  0  0  0  0  0  0  0  0  0
   47.4083   38.9182   50.7855 C   0  0  0  0  0  0  0  0  0  0  0  0
   47.1647   37.6550   51.2817 C   0  0  0  0  0  0  0  0  0  0  0  0
   46.0522   36.9507   50.8817 C   0  0  0  0  0  0  0  0  0  0  0  0
   45.2102   37.5390   49.9734 C   0  0  0  0  0  0  0  0  0  0  0  0
  2  3  1  0  0  0  0
  3  5  1  0  0  0  0
  5  7  1  0  0  0  0
  5  6  2  0  0  0  0
  1  7  1  0  0  0  0
  1  9  1  0  0  0  0
  8  9  2  0  0  0  0
  9 10  1  0  0  0  0
 10 11  4  0  0  0  0
 11 12  4  0  0  0  0
 12 13  4  0  0  0  0
 13 14  4  0  0  0  0
 14 15  4  0  0  0  0
  4 15  1  0  0  0  0
 10 15  4  0  0  0  0
 17 18  1  0  0  0  0
 18 20  1  0  0  0  0
 20 22  1  0  0  0  0
 20 21  2  0  0  0  0
 16 22  1  0  0  0  0
 16 24  1  0  0  0  0
 23 24  2  0  0  0  0
 24 25  1  0  0  0  0
 25 26  4  0  0  0  0
 26 27  4  0  0  0  0
 27 28  4  0  0  0  0
 28 29  4  0  0  0  0
 29 30  4  0  0  0  0
 19 30  1  0  0  0  0
 25 30  4  0  0  0  0
 32 33  1  0  0  0  0
 33 35  1  0  0  0  0
 35 37  1  0  0  0  0
 35 36  2  0  0  0  0
 31 37  1  0  0  0  0
 31 39  1  0  0  0  0
 38 39  2  0  0  0  0
 39 40  1  0  0  0  0
 40 41  4  0  0  0  0
 41 42  4  0  0  0  0
 42 43  4  0  0  0  0
 43 44  4  0  0  0  0
 44 45  4  0  0  0  0
 34 45  1  0  0  0  0
 40 45  4  0  0  0  0
M  END
$$$$
