7FKB
  PyMOL2.5          3D                             0

 13 13  0  0  0  0  0  0  0  0999 V2000
   19.1125   20.3540  -25.1712 N   0  0  0  0  0  0  0  0  0  0  0  0
   19.0898   25.0890  -24.1904 C   0  0  0  0  0  0  0  0  0  0  0  0
   19.1994   23.7551  -24.6210 O   0  0  0  0  0  0  0  0  0  0  0  0
   20.4126   23.4364  -25.0818 C   0  0  0  0  0  0  0  0  0  0  0  0
   18.0044   18.3752  -24.5065 N   0  0  0  0  0  0  0  0  0  0  0  0
   17.3931   19.4639  -26.3258 O   0  0  0  0  0  0  0  0  0  0  0  0
   21.5258   24.2193  -24.8313 C   0  0  0  0  0  0  0  0  0  0  0  0
   22.7455   23.8703  -25.3404 C   0  0  0  0  0  0  0  0  0  0  0  0
   22.8576   22.7258  -26.0789 C   0  0  0  0  0  0  0  0  0  0  0  0
   21.7270   21.9332  -26.3266 C   0  0  0  0  0  0  0  0  0  0  0  0
   20.4904   22.2887  -25.8376 C   0  0  0  0  0  0  0  0  0  0  0  0
   19.2660   21.4818  -26.1026 C   0  0  0  0  0  0  0  0  0  0  0  0
   18.1300   19.4043  -25.3799 C   0  0  0  0  0  0  0  0  0  0  0  0
  2  3  1  0  0  0  0
  3  4  1  0  0  0  0
  4  7  4  0  0  0  0
  4 11  4  0  0  0  0
  5 13  1  0  0  0  0
  7  8  4  0  0  0  0
  8  9  4  0  0  0  0
  9 10  4  0  0  0  0
 10 11  4  0  0  0  0
  1 12  1  0  0  0  0
 11 12  1  0  0  0  0
  1 13  1  0  0  0  0
  6 13  2  0  0  0  0
M  END
$$$$
