7FKD
  PyMOL2.5          3D                             0

 13 13  0  0  0  0  0  0  0  0999 V2000
   37.3365    8.2558   36.8183 N   0  0  0  0  0  0  0  0  0  0  0  0
   34.2803    8.8383   37.5590 C   0  0  0  0  0  0  0  0  0  0  0  0
   37.9006    5.9823   36.6056 O   0  0  0  0  0  0  0  0  0  0  0  0
   35.4554    9.6504   37.8879 C   0  0  0  0  0  0  0  0  0  0  0  0
   39.5669    7.1311   37.4213 O   0  0  0  0  0  0  0  0  0  0  0  0
   35.1636   10.7445   38.5934 C   0  0  0  0  0  0  0  0  0  0  0  0
   36.1484   11.6068   38.8552 C   0  0  0  0  0  0  0  0  0  0  0  0
   37.3863   11.4399   38.4116 C   0  0  0  0  0  0  0  0  0  0  0  0
   37.7263   10.4074   37.7103 C   0  0  0  0  0  0  0  0  0  0  0  0
   36.7972    9.4721   37.4767 C   0  0  0  0  0  0  0  0  0  0  0  0
   37.8034    6.7635   38.9012 C   0  0  0  0  0  0  0  0  0  0  0  0
   39.0687   10.3811   37.1479 C   0  0  0  0  0  0  0  0  0  0  0  0
   38.2786    6.9842   37.3793 S   0  0  0  0  0  0  0  0  0  0  0  0
  2  4  1  0  0  0  0
  4  6  4  0  0  0  0
  4 10  4  0  0  0  0
  5 13  2  0  0  0  0
  6  7  4  0  0  0  0
  7  8  4  0  0  0  0
  8  9  4  0  0  0  0
  9 10  4  0  0  0  0
  1 10  1  0  0  0  0
 11 13  1  0  0  0  0
  9 12  1  0  0  0  0
  1 13  1  0  0  0  0
  3 13  2  0  0  0  0
M  END
$$$$
