7FKE
  PyMOL2.5          3D                             0

 28 28  0  0  0  0  0  0  0  0999 V2000
   19.3062   -9.8202   64.0977 N   0  0  0  0  0  0  0  0  0  0  0  0
   17.1713   -8.7209   63.7778 C   0  0  0  0  0  0  0  0  0  0  0  0
   21.4580   -9.2112   63.6357 O   0  0  0  0  0  0  0  0  0  0  0  0
   18.6797   -8.5627   63.7656 C   0  0  0  0  0  0  0  0  0  0  0  0
   21.0665  -11.3605   64.5268 O   0  0  0  0  0  0  0  0  0  0  0  0
   20.8450  -11.0554   62.0218 C   0  0  0  0  0  0  0  0  0  0  0  0
   19.6664  -11.8726   61.8747 C   0  0  0  0  0  0  0  0  0  0  0  0
   19.7643  -13.2301   61.7283 C   0  0  0  0  0  0  0  0  0  0  0  0
   18.6174  -13.9531   61.6567 C   0  0  0  0  0  0  0  0  0  0  0  0
   17.4008  -13.3057   61.7187 C   0  0  0  0  0  0  0  0  0  0  0  0
   17.2545  -11.9211   61.8661 C   0  0  0  0  0  0  0  0  0  0  0  0
   18.4254  -11.2137   61.9439 C   0  0  0  0  0  0  0  0  0  0  0  0
   16.3585  -14.0580   61.6020 F   0  0  0  0  0  0  0  0  0  0  0  0
   20.7378  -10.3252   63.6130 S   0  0  0  0  0  0  0  0  0  0  0  0
   28.3625  -15.0917   30.4058 N   0  0  0  0  0  0  0  0  0  0  0  0
   28.9437  -13.2074   28.9488 C   0  0  0  0  0  0  0  0  0  0  0  0
   27.9371  -14.9267   32.7516 O   0  0  0  0  0  0  0  0  0  0  0  0
   28.2617  -13.6417   30.2382 C   0  0  0  0  0  0  0  0  0  0  0  0
   28.7679  -16.9676   31.8413 O   0  0  0  0  0  0  0  0  0  0  0  0
   26.3712  -16.4011   31.4164 C   0  0  0  0  0  0  0  0  0  0  0  0
   25.6094  -16.8318   32.6336 C   0  0  0  0  0  0  0  0  0  0  0  0
   24.8182  -15.9338   33.3138 C   0  0  0  0  0  0  0  0  0  0  0  0
   24.1065  -16.3378   34.4188 C   0  0  0  0  0  0  0  0  0  0  0  0
   24.2090  -17.6587   34.8205 C   0  0  0  0  0  0  0  0  0  0  0  0
   24.9931  -18.5644   34.1549 C   0  0  0  0  0  0  0  0  0  0  0  0
   25.6889  -18.1428   33.0671 C   0  0  0  0  0  0  0  0  0  0  0  0
   23.5489  -18.0710   35.8601 F   0  0  0  0  0  0  0  0  0  0  0  0
   27.9741  -15.8584   31.7615 S   0  0  0  0  0  0  0  0  0  0  0  0
  1  4  1  0  0  0  0
  2  4  1  0  0  0  0
  5 14  2  0  0  0  0
  6 14  1  0  0  0  0
  6  7  1  0  0  0  0
  7  8  4  0  0  0  0
  8  9  4  0  0  0  0
  9 10  4  0  0  0  0
 10 13  1  0  0  0  0
 10 11  4  0  0  0  0
 11 12  4  0  0  0  0
  7 12  4  0  0  0  0
  1 14  1  0  0  0  0
  3 14  2  0  0  0  0
 15 18  1  0  0  0  0
 16 18  1  0  0  0  0
 19 28  2  0  0  0  0
 20 28  1  0  0  0  0
 20 21  1  0  0  0  0
 21 22  4  0  0  0  0
 22 23  4  0  0  0  0
 23 24  4  0  0  0  0
 24 27  1  0  0  0  0
 24 25  4  0  0  0  0
 25 26  4  0  0  0  0
 21 26  4  0  0  0  0
 15 28  1  0  0  0  0
 17 28  2  0  0  0  0
M  END
$$$$
