7FKG
  PyMOL2.5          3D                             0

 17 17  0  0  0  0  0  0  0  0999 V2000
   18.0404   17.4840   63.5356 N   0  0  0  0  0  0  0  0  0  0  0  0
   18.0328   21.0204   60.3319 C   0  0  0  0  0  0  0  0  0  0  0  0
   20.2002   18.4342   63.5503 O   0  0  0  0  0  0  0  0  0  0  0  0
   17.3000   20.0422   61.0684 C   0  0  0  0  0  0  0  0  0  0  0  0
   18.6623   19.2970   65.1559 N   0  0  0  0  0  0  0  0  0  0  0  0
   19.3913   17.0260   65.2281 O   0  0  0  0  0  0  0  0  0  0  0  0
   16.0222   19.7985   60.6999 C   0  0  0  0  0  0  0  0  0  0  0  0
   15.5104   16.9862   62.7924 O   0  0  0  0  0  0  0  0  0  0  0  0
   15.3962   18.7304   61.2283 C   0  0  0  0  0  0  0  0  0  0  0  0
   16.0903   17.9548   62.1521 C   0  0  0  0  0  0  0  0  0  0  0  0
   17.4121   18.2148   62.5822 C   0  0  0  0  0  0  0  0  0  0  0  0
   17.9912   19.2999   62.0199 C   0  0  0  0  0  0  0  0  0  0  0  0
   17.4693   19.0621   65.8815 C   0  0  0  0  0  0  0  0  0  0  0  0
   19.1992   20.6911   65.2608 C   0  0  0  0  0  0  0  0  0  0  0  0
   20.2819   20.9376   66.2946 C   0  0  0  0  0  0  0  0  0  0  0  0
   19.5879   21.4329   64.0096 C   0  0  0  0  0  0  0  0  0  0  0  0
   19.2283   18.0401   64.3732 S   0  0  0  0  0  0  0  0  0  0  0  0
  3 17  2  0  0  0  0
  2  4  1  0  0  0  0
  4  7  4  0  0  0  0
  4 12  4  0  0  0  0
  5 13  1  0  0  0  0
  5 14  1  0  0  0  0
  5 17  1  0  0  0  0
  6 17  2  0  0  0  0
  8 10  2  0  0  0  0
  7  9  4  0  0  0  0
  9 10  4  0  0  0  0
  1 11  1  0  0  0  0
 10 11  4  0  0  0  0
 11 12  4  0  0  0  0
 14 15  1  0  0  0  0
 14 16  1  0  0  0  0
  1 17  1  0  0  0  0
M  END
$$$$
