7FKK
  PyMOL2.5          3D                             0

 13 13  0  0  0  0  0  0  0  0999 V2000
   40.8858  -45.4213    7.6550 N   0  0  0  0  0  0  0  0  0  0  0  0
   39.5356  -48.7801    7.2696 C   0  0  0  0  0  0  0  0  0  0  0  0
   39.0628  -44.2082    8.1936 O   0  0  0  0  0  0  0  0  0  0  0  0
   39.8659  -48.0934    6.0365 C   0  0  0  0  0  0  0  0  0  0  0  0
   41.5155  -45.0726    8.7756 O   0  0  0  0  0  0  0  0  0  0  0  0
   40.5210  -48.7834    5.0874 C   0  0  0  0  0  0  0  0  0  0  0  0
   40.8555  -48.1823    3.9053 C   0  0  0  0  0  0  0  0  0  0  0  0
   40.5372  -46.9023    3.6914 C   0  0  0  0  0  0  0  0  0  0  0  0
   39.8682  -46.1753    4.6326 C   0  0  0  0  0  0  0  0  0  0  0  0
   39.5192  -46.7895    5.8147 C   0  0  0  0  0  0  0  0  0  0  0  0
   38.6674  -46.0022    6.7651 C   0  0  0  0  0  0  0  0  0  0  0  0
   39.5168  -45.1063    7.6057 C   0  0  0  0  0  0  0  0  0  0  0  0
   42.5813  -45.9575    9.0204 C   0  0  0  0  0  0  0  0  0  0  0  0
  2  4  1  0  0  0  0
  4  6  4  0  0  0  0
  4 10  4  0  0  0  0
  1  5  1  0  0  0  0
  6  7  4  0  0  0  0
  7  8  4  0  0  0  0
  8  9  4  0  0  0  0
  9 10  4  0  0  0  0
 10 11  1  0  0  0  0
 11 12  1  0  0  0  0
  1 12  1  0  0  0  0
  3 12  2  0  0  0  0
  5 13  1  0  0  0  0
M  END
$$$$
