7FKN
  PyMOL2.5          3D                             0

 10 10  0  0  0  0  0  0  0  0999 V2000
   41.9808   23.1963   -3.4488 C   0  0  0  0  0  0  0  0  0  0  0  0
   41.7886   23.0925   -2.1429 O   0  0  0  0  0  0  0  0  0  0  0  0
   42.9259   24.1187   -3.8025 C   0  0  0  0  0  0  0  0  0  0  0  0
   43.7913   24.5132   -7.8170 O   0  0  0  0  0  0  0  0  0  0  0  0
   43.2377   24.2641   -5.1280 C   0  0  0  0  0  0  0  0  0  0  0  0
   42.6203   23.5074   -6.0990 C   0  0  0  0  0  0  0  0  0  0  0  0
   41.6578   22.5949   -5.7488 C   0  0  0  0  0  0  0  0  0  0  0  0
   41.3220   22.4266   -4.4057 C   0  0  0  0  0  0  0  0  0  0  0  0
   43.0222   23.6638   -7.5029 C   0  0  0  0  0  0  0  0  0  0  0  0
   42.4631   22.7316   -8.5145 C   0  0  0  0  0  0  0  0  0  0  0  0
  1  2  1  0  0  0  0
  1  3  4  0  0  0  0
  1  8  4  0  0  0  0
  3  5  4  0  0  0  0
  4  9  2  0  0  0  0
  5  6  4  0  0  0  0
  6  7  4  0  0  0  0
  6  9  1  0  0  0  0
  7  8  4  0  0  0  0
  9 10  1  0  0  0  0
M  END
$$$$
