7FKO
  PyMOL2.5          3D                             0

 26 26  0  0  0  0  0  0  0  0999 V2000
    8.8740   22.7847  -40.0312 N   0  0  0  0  0  0  0  0  0  0  0  0
   12.2467   22.9128  -36.1484 C   0  0  0  0  0  0  0  0  0  0  0  0
    6.8592   21.7503  -39.9648 O   0  0  0  0  0  0  0  0  0  0  0  0
   11.5368   21.8754  -35.6715 C   0  0  0  0  0  0  0  0  0  0  0  0
    8.4998   23.7966  -40.9139 N   0  0  0  0  0  0  0  0  0  0  0  0
   10.9540   21.0011  -36.5446 C   0  0  0  0  0  0  0  0  0  0  0  0
   11.1068   21.1990  -37.8639 C   0  0  0  0  0  0  0  0  0  0  0  0
   11.8304   22.2457  -38.3358 C   0  0  0  0  0  0  0  0  0  0  0  0
   12.4105   23.1244  -37.4937 C   0  0  0  0  0  0  0  0  0  0  0  0
    8.6019   20.7267  -38.6314 C   0  0  0  0  0  0  0  0  0  0  0  0
    8.0359   21.7641  -39.5927 C   0  0  0  0  0  0  0  0  0  0  0  0
   11.9629   22.4354  -39.6226 F   0  0  0  0  0  0  0  0  0  0  0  0
   10.2996   20.1223  -38.8343 S   0  0  0  0  0  0  0  0  0  0  0  0
   49.2746    4.0828   29.2993 N   0  0  0  0  0  0  0  0  0  0  0  0
   50.4291   11.2295   32.2767 C   0  0  0  0  0  0  0  0  0  0  0  0
   50.1508    3.9505   31.3421 O   0  0  0  0  0  0  0  0  0  0  0  0
   49.3462   10.6590   32.8847 C   0  0  0  0  0  0  0  0  0  0  0  0
   49.0763    2.7024   29.1489 N   0  0  0  0  0  0  0  0  0  0  0  0
   48.8365    9.4738   32.4228 C   0  0  0  0  0  0  0  0  0  0  0  0
   49.3983    8.8442   31.3590 C   0  0  0  0  0  0  0  0  0  0  0  0
   50.5252    9.4759   30.7233 C   0  0  0  0  0  0  0  0  0  0  0  0
   51.0205   10.6504   31.1942 C   0  0  0  0  0  0  0  0  0  0  0  0
   49.9650    6.2079   30.4662 C   0  0  0  0  0  0  0  0  0  0  0  0
   49.8024    4.6837   30.4395 C   0  0  0  0  0  0  0  0  0  0  0  0
   51.1682    9.0435   29.6549 F   0  0  0  0  0  0  0  0  0  0  0  0
   48.5918    7.3370   31.0524 S   0  0  0  0  0  0  0  0  0  0  0  0
  2  4  4  0  0  0  0
  4  6  4  0  0  0  0
  1  5  1  0  0  0  0
  6  7  4  0  0  0  0
  7 13  1  0  0  0  0
  7  8  4  0  0  0  0
  8 12  1  0  0  0  0
  2  9  4  0  0  0  0
  8  9  4  0  0  0  0
 10 13  1  0  0  0  0
  1 11  1  0  0  0  0
  3 11  2  0  0  0  0
 10 11  1  0  0  0  0
 15 17  4  0  0  0  0
 17 19  4  0  0  0  0
 14 18  1  0  0  0  0
 19 20  4  0  0  0  0
 20 26  1  0  0  0  0
 20 21  4  0  0  0  0
 21 25  1  0  0  0  0
 15 22  4  0  0  0  0
 21 22  4  0  0  0  0
 23 26  1  0  0  0  0
 14 24  1  0  0  0  0
 16 24  2  0  0  0  0
 23 24  1  0  0  0  0
M  END
$$$$
