7FKP
  PyMOL2.5          3D                             0

 15 15  0  0  0  0  0  0  0  0999 V2000
   72.8019    6.7494    9.4774 N   0  0  0  0  0  0  0  0  0  0  0  0
   74.9124   11.2728    4.6559 C   0  0  0  0  0  0  0  0  0  0  0  0
   74.2373   11.8863    8.2029 O   0  0  0  0  0  0  0  0  0  0  0  0
   74.1394   11.2808    5.9599 C   0  0  0  0  0  0  0  0  0  0  0  0
   73.6765    5.7701    9.6373 N   0  0  0  0  0  0  0  0  0  0  0  0
   74.3793    9.6557    8.1069 O   0  0  0  0  0  0  0  0  0  0  0  0
   74.5855    7.7994   11.0034 S   0  0  0  0  0  0  0  0  0  0  0  0
   74.9549   12.0443    7.0026 C   0  0  0  0  0  0  0  0  0  0  0  0
   75.7324    5.3168   10.7664 N   0  0  0  0  0  0  0  0  0  0  0  0
   73.9939   10.6446    8.6846 C   0  0  0  0  0  0  0  0  0  0  0  0
   73.2295   10.7181    9.9724 C   0  0  0  0  0  0  0  0  0  0  0  0
   74.2564   10.7166   11.0944 C   0  0  0  0  0  0  0  0  0  0  0  0
   73.0936    7.8821   10.1118 C   0  0  0  0  0  0  0  0  0  0  0  0
   74.7224    6.1419   10.4388 C   0  0  0  0  0  0  0  0  0  0  0  0
   72.1138    9.2702   10.1109 S   0  0  0  0  0  0  0  0  0  0  0  0
  2  4  1  0  0  0  0
  4  8  1  0  0  0  0
  1  5  4  0  0  0  0
  5 14  4  0  0  0  0
  6 10  2  0  0  0  0
  3  8  1  0  0  0  0
  3 10  1  0  0  0  0
 10 11  1  0  0  0  0
 11 15  1  0  0  0  0
 11 12  1  0  0  0  0
  1 13  4  0  0  0  0
  7 13  4  0  0  0  0
 13 15  1  0  0  0  0
  7 14  4  0  0  0  0
  9 14  1  0  0  0  0
M  END
$$$$
