7FKX
  PyMOL2.5          3D                             0

 14 15  0  0  0  0  0  0  0  0999 V2000
   15.8295    4.0718  -19.3188 C   0  0  0  0  0  0  0  0  0  0  0  0
   16.0702    6.9246  -22.4919 O   0  0  0  0  0  0  0  0  0  0  0  0
   15.3658    5.2369  -15.5671 Cl  0  0  0  0  0  0  0  0  0  0  0  0
   15.9363    4.1353  -17.9386 C   0  0  0  0  0  0  0  0  0  0  0  0
   17.2146    5.1144  -22.2367 O   0  5  0  0  0  0  0  0  0  0  0  0
   15.3909    5.2132  -17.3019 C   0  0  0  0  0  0  0  0  0  0  0  0
   14.7794    6.2503  -17.9770 C   0  0  0  0  0  0  0  0  0  0  0  0
   14.6840    6.1800  -19.3705 C   0  0  0  0  0  0  0  0  0  0  0  0
   15.1887    5.0929  -20.0599 C   0  0  0  0  0  0  0  0  0  0  0  0
   15.0105    5.0154  -21.5275 C   0  0  0  0  0  0  0  0  0  0  0  0
   14.7696    3.6178  -22.1033 C   0  0  0  0  0  0  0  0  0  0  0  0
   13.3009    3.9752  -22.3914 C   0  0  0  0  0  0  0  0  0  0  0  0
   13.6507    5.4414  -22.1401 C   0  0  0  0  0  0  0  0  0  0  0  0
   16.2094    5.7780  -22.1458 C   0  0  0  0  0  0  0  0  0  0  0  0
  1  4  4  0  0  0  0
  4  6  4  0  0  0  0
  5 14  4  0  0  0  0
  3  6  1  0  0  0  0
  6  7  4  0  0  0  0
  7  8  4  0  0  0  0
  1  9  4  0  0  0  0
  8  9  4  0  0  0  0
  9 10  1  0  0  0  0
 10 14  1  0  0  0  0
 10 11  1  0  0  0  0
 11 12  1  0  0  0  0
 12 13  1  0  0  0  0
 10 13  1  0  0  0  0
  2 14  4  0  0  0  0
M  END
$$$$
