7FL0
  PyMOL2.5          3D                             0

  8  9  0  0  0  0  0  0  0  0999 V2000
   34.0110   35.6184  -41.0458 N   0  0  0  0  0  0  0  0  0  0  0  0
   36.9087   35.5459  -43.4124 C   0  0  0  0  0  0  0  0  0  0  0  0
   35.7480   35.9989  -44.1905 C   0  0  0  0  0  0  0  0  0  0  0  0
   34.1501   36.2951  -39.9865 N   0  5  0  0  0  0  0  0  0  0  0  0
   35.5502   35.1670  -42.9870 C   0  0  0  0  0  0  0  0  0  0  0  0
   35.2711   36.8564  -39.9475 N   0  0  0  0  0  0  0  0  0  0  0  0
   35.1370   35.7658  -41.7062 C   0  0  0  0  0  0  0  0  0  0  0  0
   35.8757   36.5436  -40.9846 N   0  0  0  0  0  0  0  0  0  0  0  0
  2  3  1  0  0  0  0
  3  5  1  0  0  0  0
  1  4  4  0  0  0  0
  4  6  4  0  0  0  0
  2  5  1  0  0  0  0
  6  8  4  0  0  0  0
  1  7  4  0  0  0  0
  5  7  1  0  0  0  0
  7  8  4  0  0  0  0
M  END
$$$$
