7FL1
  PyMOL2.5          3D                             0

 28 30  0  0  0  0  0  0  0  0999 V2000
   36.2196  -13.2657   13.0545 N   0  0  0  0  0  0  0  0  0  0  0  0
   38.0111  -17.2702   14.3364 C   0  0  0  0  0  0  0  0  0  0  0  0
   37.3080  -14.5775   11.6763 O   0  0  0  0  0  0  0  0  0  0  0  0
   37.9043  -16.4105   13.4739 C   0  0  0  0  0  0  0  0  0  0  0  0
   37.6578  -11.7125   15.4365 O   0  0  0  0  0  0  0  0  0  0  0  0
   37.1362  -15.4725   13.7466 C   0  0  0  0  0  0  0  0  0  0  0  0
   37.2665  -17.0317   15.4083 C   0  0  0  0  0  0  0  0  0  0  0  0
   36.8699  -14.3921   12.7693 C   0  0  0  0  0  0  0  0  0  0  0  0
   35.9315  -12.8304   14.4120 C   0  0  0  0  0  0  0  0  0  0  0  0
   36.5346  -11.4982   14.6817 C   0  0  0  0  0  0  0  0  0  0  0  0
   35.7883  -12.3864   11.9786 C   0  0  0  0  0  0  0  0  0  0  0  0
   34.3433  -12.3633   11.6222 C   0  0  0  0  0  0  0  0  0  0  0  0
   34.9628  -11.1980   12.3236 C   0  0  0  0  0  0  0  0  0  0  0  0
   36.4830  -15.6951   15.2560 S   0  0  0  0  0  0  0  0  0  0  0  0
   30.3020  -19.4061   25.8600 N   0  0  0  0  0  0  0  0  0  0  0  0
   33.2158  -17.7318   28.9520 C   0  0  0  0  0  0  0  0  0  0  0  0
   32.0381  -20.6970   25.9862 O   0  0  0  0  0  0  0  0  0  0  0  0
   32.0669  -18.2256   28.2900 C   0  0  0  0  0  0  0  0  0  0  0  0
   29.5700  -22.6882   26.3098 O   0  0  0  0  0  0  0  0  0  0  0  0
   32.4125  -18.9019   27.2049 C   0  0  0  0  0  0  0  0  0  0  0  0
   34.3617  -18.0530   28.3187 C   0  0  0  0  0  0  0  0  0  0  0  0
   31.5713  -19.6936   26.3268 C   0  0  0  0  0  0  0  0  0  0  0  0
   29.4933  -20.5017   25.3881 C   0  0  0  0  0  0  0  0  0  0  0  0
   29.2058  -21.4243   26.5967 C   0  0  0  0  0  0  0  0  0  0  0  0
   29.4725  -18.2908   26.2224 C   0  0  0  0  0  0  0  0  0  0  0  0
   29.9716  -17.0085   26.7908 C   0  0  0  0  0  0  0  0  0  0  0  0
   29.2934  -18.0095   27.6716 C   0  0  0  0  0  0  0  0  0  0  0  0
   34.0854  -18.9178   26.9786 S   0  0  0  0  0  0  0  0  0  0  0  0
  2  4  4  0  0  0  0
  4  6  4  0  0  0  0
  5 10  1  0  0  0  0
  6 14  4  0  0  0  0
  2  7  4  0  0  0  0
  7 14  4  0  0  0  0
  1  8  1  0  0  0  0
  3  8  2  0  0  0  0
  6  8  1  0  0  0  0
  1  9  1  0  0  0  0
  9 10  1  0  0  0  0
  1 11  1  0  0  0  0
 11 12  1  0  0  0  0
 11 13  1  0  0  0  0
 12 13  1  0  0  0  0
 16 18  4  0  0  0  0
 18 20  4  0  0  0  0
 19 24  1  0  0  0  0
 20 28  4  0  0  0  0
 16 21  4  0  0  0  0
 21 28  4  0  0  0  0
 15 22  1  0  0  0  0
 17 22  2  0  0  0  0
 20 22  1  0  0  0  0
 15 23  1  0  0  0  0
 23 24  1  0  0  0  0
 15 25  1  0  0  0  0
 25 26  1  0  0  0  0
 25 27  1  0  0  0  0
 26 27  1  0  0  0  0
M  END
$$$$
