7FL4
  PyMOL2.5          3D                             0

 30 32  0  0  0  0  0  0  0  0999 V2000
   35.1201    5.5105  -35.2503 N   0  0  0  0  0  0  0  0  0  0  0  0
   32.6138    4.3651  -35.2510 C   0  0  0  0  0  0  0  0  0  0  0  0
   34.6484    7.4495  -31.1351 O   0  0  0  0  0  0  0  0  0  0  0  0
   34.6794    5.6505  -33.9922 C   0  0  0  0  0  0  0  0  0  0  0  0
   34.9442    5.2732  -30.8814 N   0  0  0  0  0  0  0  0  0  0  0  0
   35.4172    6.3008  -33.0178 C   0  0  0  0  0  0  0  0  0  0  0  0
   36.6256    6.8512  -33.3664 C   0  0  0  0  0  0  0  0  0  0  0  0
   37.0796    6.7254  -34.6503 C   0  0  0  0  0  0  0  0  0  0  0  0
   36.2948    6.0383  -35.5529 C   0  0  0  0  0  0  0  0  0  0  0  0
   34.9778    6.4011  -31.6209 C   0  0  0  0  0  0  0  0  0  0  0  0
   35.3330    3.9741  -31.4258 C   0  0  0  0  0  0  0  0  0  0  0  0
   34.7389    2.9357  -30.4628 C   0  0  0  0  0  0  0  0  0  0  0  0
   34.3527    3.7083  -29.1972 C   0  0  0  0  0  0  0  0  0  0  0  0
   34.5137    5.2074  -29.4964 C   0  0  0  0  0  0  0  0  0  0  0  0
   33.0943    5.0224  -33.6517 S   0  0  0  0  0  0  0  0  0  0  0  0
   22.7727    7.0592  -27.9400 N   0  0  0  0  0  0  0  0  0  0  0  0
   21.1431    5.1786  -29.3160 C   0  0  0  0  0  0  0  0  0  0  0  0
   24.0472    3.7342  -25.4438 O   0  0  0  0  0  0  0  0  0  0  0  0
   22.7421    5.9514  -27.1902 C   0  0  0  0  0  0  0  0  0  0  0  0
   22.4645    4.5743  -24.0958 N   0  0  0  0  0  0  0  0  0  0  0  0
   23.3145    5.8927  -25.9462 C   0  0  0  0  0  0  0  0  0  0  0  0
   23.9308    7.0112  -25.4267 C   0  0  0  0  0  0  0  0  0  0  0  0
   23.9777    8.1570  -26.1720 C   0  0  0  0  0  0  0  0  0  0  0  0
   23.3930    8.1339  -27.4265 C   0  0  0  0  0  0  0  0  0  0  0  0
   23.3138    4.6619  -25.1584 C   0  0  0  0  0  0  0  0  0  0  0  0
   22.4125    3.3757  -23.2667 C   0  0  0  0  0  0  0  0  0  0  0  0
   21.2227    3.5724  -22.3242 C   0  0  0  0  0  0  0  0  0  0  0  0
   20.5342    4.8537  -22.7666 C   0  0  0  0  0  0  0  0  0  0  0  0
   21.5396    5.5998  -23.6560 C   0  0  0  0  0  0  0  0  0  0  0  0
   21.9296    4.5535  -27.8218 S   0  0  0  0  0  0  0  0  0  0  0  0
  1  4  4  0  0  0  0
  4  6  4  0  0  0  0
  4 15  1  0  0  0  0
  5 10  1  0  0  0  0
  5 11  4  0  0  0  0
  5 14  4  0  0  0  0
  6  7  4  0  0  0  0
  7  8  4  0  0  0  0
  1  9  4  0  0  0  0
  8  9  4  0  0  0  0
  3 10  2  0  0  0  0
  6 10  1  0  0  0  0
 11 12  4  0  0  0  0
 12 13  4  0  0  0  0
 13 14  4  0  0  0  0
  2 15  1  0  0  0  0
 16 19  4  0  0  0  0
 19 21  4  0  0  0  0
 19 30  1  0  0  0  0
 20 25  1  0  0  0  0
 20 26  4  0  0  0  0
 20 29  4  0  0  0  0
 21 22  4  0  0  0  0
 22 23  4  0  0  0  0
 16 24  4  0  0  0  0
 23 24  4  0  0  0  0
 18 25  2  0  0  0  0
 21 25  1  0  0  0  0
 26 27  4  0  0  0  0
 27 28  4  0  0  0  0
 28 29  4  0  0  0  0
 17 30  1  0  0  0  0
M  END
$$$$
