7FL5
  PyMOL2.5          3D                             0

 31 32  0  0  0  0  0  0  0  0999 V2000
   56.0767  -18.2053   35.3659 N   0  0  0  0  0  0  0  0  0  0  0  0
   54.1230  -19.1761   32.4315 C   0  0  0  0  0  0  0  0  0  0  0  0
   53.1272  -19.9603   31.8881 C   0  0  0  0  0  0  0  0  0  0  0  0
   56.0098  -16.5608   32.2832 N   0  0  0  0  0  0  0  0  0  0  0  0
   51.9436  -19.3792   31.5277 C   0  0  0  0  0  0  0  0  0  0  0  0
   57.8760  -15.9416   30.5312 N   0  0  0  0  0  0  0  0  0  0  0  0
   51.7371  -18.0295   31.6667 C   0  0  0  0  0  0  0  0  0  0  0  0
   52.7466  -17.2502   32.1978 C   0  0  0  0  0  0  0  0  0  0  0  0
   53.9475  -17.8114   32.6064 C   0  0  0  0  0  0  0  0  0  0  0  0
   55.0208  -16.9762   33.2935 C   0  0  0  0  0  0  0  0  0  0  0  0
   55.6331  -17.6497   34.4767 C   0  0  0  0  0  0  0  0  0  0  0  0
   57.2606  -16.1218   32.9067 C   0  0  0  0  0  0  0  0  0  0  0  0
   58.0309  -15.3291   31.8776 C   0  0  0  0  0  0  0  0  0  0  0  0
   57.6002  -17.3994   30.6254 C   0  0  0  0  0  0  0  0  0  0  0  0
   56.2892  -17.6397   31.3332 C   0  0  0  0  0  0  0  0  0  0  0  0
   50.5591  -20.4760   30.8464 Br  0  0  0  0  0  0  0  0  0  0  0  0
   54.5412  -16.0764   33.6764 H   0  0  0  0  0  0  0  0  0  0  0  0
   58.7284  -15.7950   30.0004 H   0  0  0  0  0  0  0  0  0  0  0  0
   57.1288  -15.4761   30.0264 H   0  0  0  0  0  0  0  0  0  0  0  0
   55.0280  -19.7150   32.7091 H   0  0  0  0  0  0  0  0  0  0  0  0
   53.2799  -21.0282   31.7451 H   0  0  0  0  0  0  0  0  0  0  0  0
   50.7965  -17.5732   31.3632 H   0  0  0  0  0  0  0  0  0  0  0  0
   52.5766  -16.1781   32.2901 H   0  0  0  0  0  0  0  0  0  0  0  0
   57.1517  -15.5637   33.8354 H   0  0  0  0  0  0  0  0  0  0  0  0
   57.8573  -16.9902   33.1838 H   0  0  0  0  0  0  0  0  0  0  0  0
   57.6975  -14.2928   31.8568 H   0  0  0  0  0  0  0  0  0  0  0  0
   59.0881  -15.2851   32.1341 H   0  0  0  0  0  0  0  0  0  0  0  0
   57.5823  -17.8287   29.6245 H   0  0  0  0  0  0  0  0  0  0  0  0
   58.4180  -17.9070   31.1348 H   0  0  0  0  0  0  0  0  0  0  0  0
   56.4109  -18.5782   31.8712 H   0  0  0  0  0  0  0  0  0  0  0  0
   55.4918  -17.8408   30.6187 H   0  0  0  0  0  0  0  0  0  0  0  0
  2 20  1  0  0  0  0
  2  3  4  0  0  0  0
  3  5  4  0  0  0  0
  3 21  1  0  0  0  0
  4 10  1  0  0  0  0
  4 12  1  0  0  0  0
  4 15  1  0  0  0  0
  5 16  1  0  0  0  0
  6 13  1  0  0  0  0
  6 14  1  0  0  0  0
  6 18  1  0  0  0  0
  6 19  1  0  0  0  0
  5  7  4  0  0  0  0
  7 22  1  0  0  0  0
  7  8  4  0  0  0  0
  8 23  1  0  0  0  0
  2  9  4  0  0  0  0
  8  9  4  0  0  0  0
  9 10  1  0  0  0  0
 10 17  1  0  0  0  0
  1 11  3  0  0  0  0
 10 11  1  0  0  0  0
 12 13  1  0  0  0  0
 12 24  1  0  0  0  0
 12 25  1  0  0  0  0
 13 26  1  0  0  0  0
 13 27  1  0  0  0  0
 14 28  1  0  0  0  0
 14 29  1  0  0  0  0
 14 15  1  0  0  0  0
 15 30  1  0  0  0  0
 15 31  1  0  0  0  0
M  END
$$$$
