7FLC
  PyMOL2.5          3D                             0

 13 14  0  0  0  0  0  0  0  0999 V2000
   49.4304   21.3329  -26.5358 N   0  3  0  0  0  0  0  0  0  0  0  0
   50.2233   20.1089  -31.3027 C   0  0  0  0  0  0  0  0  0  0  0  0
   51.0699   20.4415  -34.8798 Cl  0  0  0  0  0  0  0  0  0  0  0  0
   50.4986   19.8836  -32.5500 C   0  0  0  0  0  0  0  0  0  0  0  0
   50.8534   20.8438  -33.3159 C   0  0  0  0  0  0  0  0  0  0  0  0
   50.9841   22.0990  -32.8459 C   0  0  0  0  0  0  0  0  0  0  0  0
   50.6894   22.3282  -31.5790 C   0  0  0  0  0  0  0  0  0  0  0  0
   50.2867   21.3207  -30.7925 C   0  0  0  0  0  0  0  0  0  0  0  0
   49.8992   21.3931  -29.3837 C   0  0  0  0  0  0  0  0  0  0  0  0
   49.1588   22.3114  -28.8441 C   0  0  0  0  0  0  0  0  0  0  0  0
   48.6745   22.3036  -27.4076 C   0  0  0  0  0  0  0  0  0  0  0  0
   49.4274   20.0326  -27.3596 C   0  0  0  0  0  0  0  0  0  0  0  0
   50.3376   20.2542  -28.5590 C   0  0  0  0  0  0  0  0  0  0  0  0
  2  4  4  0  0  0  0
  4  5  4  0  0  0  0
  3  5  1  0  0  0  0
  5  6  4  0  0  0  0
  6  7  4  0  0  0  0
  2  8  4  0  0  0  0
  7  8  4  0  0  0  0
  8  9  1  0  0  0  0
  9 13  1  0  0  0  0
  9 10  1  0  0  0  0
 10 11  1  0  0  0  0
  1 11  1  0  0  0  0
  1 12  1  0  0  0  0
 12 13  1  0  0  0  0
M  END
$$$$
