7FLF
  PyMOL2.5          3D                             0

 42 42  0  0  0  0  0  0  0  0999 V2000
   53.2068   29.3076   25.6887 N   0  0  0  0  0  0  0  0  0  0  0  0
   57.4995   29.0895   29.1189 C   0  0  0  0  0  0  0  0  0  0  0  0
   56.8193   29.7120   28.0484 O   0  0  0  0  0  0  0  0  0  0  0  0
   56.4053   29.0380   26.9398 C   0  0  0  0  0  0  0  0  0  0  0  0
   50.8129   29.2458   25.5772 N   0  0  0  0  0  0  0  0  0  0  0  0
   56.6894   27.8561   26.9356 O   0  0  0  0  0  0  0  0  0  0  0  0
   55.6760   29.7387   25.8001 C   0  0  0  0  0  0  0  0  0  0  0  0
   49.6730   30.4565   27.0778 O   0  0  0  0  0  0  0  0  0  0  0  0
   54.5042   28.8899   25.2222 C   0  0  0  0  0  0  0  0  0  0  0  0
   52.0958   28.0371   24.1191 O   0  0  0  0  0  0  0  0  0  0  0  0
   53.1454   30.1683   26.7411 C   0  0  0  0  0  0  0  0  0  0  0  0
   51.9831   30.5718   27.2219 C   0  0  0  0  0  0  0  0  0  0  0  0
   50.7378   30.1276   26.6664 C   0  0  0  0  0  0  0  0  0  0  0  0
   52.0359   28.8095   25.0589 C   0  0  0  0  0  0  0  0  0  0  0  0
   55.5807   41.8366    6.6566 N   0  0  0  0  0  0  0  0  0  0  0  0
   50.8002   39.2149    5.8822 C   0  0  0  0  0  0  0  0  0  0  0  0
   51.9420   39.9427    6.2282 O   0  0  0  0  0  0  0  0  0  0  0  0
   52.6328   39.6980    7.3638 C   0  0  0  0  0  0  0  0  0  0  0  0
   56.2076   44.0791    7.0551 N   0  0  0  0  0  0  0  0  0  0  0  0
   52.2123   38.7954    8.0641 O   0  0  0  0  0  0  0  0  0  0  0  0
   53.8509   40.4884    7.7356 C   0  0  0  0  0  0  0  0  0  0  0  0
   58.3285   44.6374    7.2168 O   0  0  0  0  0  0  0  0  0  0  0  0
   54.5275   40.8585    6.4130 C   0  0  0  0  0  0  0  0  0  0  0  0
   54.0611   43.5210    6.8319 O   0  0  0  0  0  0  0  0  0  0  0  0
   56.8996   41.4540    6.6775 C   0  0  0  0  0  0  0  0  0  0  0  0
   57.8625   42.3612    6.8767 C   0  0  0  0  0  0  0  0  0  0  0  0
   57.5471   43.7419    7.0709 C   0  0  0  0  0  0  0  0  0  0  0  0
   55.2113   43.1706    6.8510 C   0  0  0  0  0  0  0  0  0  0  0  0
   12.8837  -16.0360  -20.9915 N   0  0  0  0  0  0  0  0  0  0  0  0
   10.3676  -20.4026  -19.9368 C   0  0  0  0  0  0  0  0  0  0  0  0
   11.2577  -19.8495  -20.8372 O   0  0  0  0  0  0  0  0  0  0  0  0
   12.1149  -18.8792  -20.5507 C   0  0  0  0  0  0  0  0  0  0  0  0
   11.6670  -14.2464  -22.0411 N   0  0  0  0  0  0  0  0  0  0  0  0
   12.0755  -18.4685  -19.4622 O   0  0  0  0  0  0  0  0  0  0  0  0
   13.0405  -18.3815  -21.5847 C   0  0  0  0  0  0  0  0  0  0  0  0
   10.1402  -13.1593  -20.9455 O   0  0  0  0  0  0  0  0  0  0  0  0
   13.7824  -17.1562  -21.0797 C   0  0  0  0  0  0  0  0  0  0  0  0
   13.2395  -15.5050  -23.1001 O   0  0  0  0  0  0  0  0  0  0  0  0
   12.2527  -15.8030  -19.8445 C   0  0  0  0  0  0  0  0  0  0  0  0
   11.3493  -14.8396  -19.7702 C   0  0  0  0  0  0  0  0  0  0  0  0
   10.9821  -13.9995  -20.8906 C   0  0  0  0  0  0  0  0  0  0  0  0
   12.6533  -15.2984  -22.1201 C   0  0  0  0  0  0  0  0  0  0  0  0
  2  3  1  0  0  0  0
  3  4  1  0  0  0  0
  4  7  1  0  0  0  0
  5 13  4  0  0  0  0
  5 14  4  0  0  0  0
  4  6  2  0  0  0  0
  1  9  1  0  0  0  0
  7  9  1  0  0  0  0
  1 11  4  0  0  0  0
 11 12  4  0  0  0  0
 12 13  4  0  0  0  0
  8 13  2  0  0  0  0
  1 14  4  0  0  0  0
 10 14  2  0  0  0  0
 16 17  1  0  0  0  0
 17 18  1  0  0  0  0
 18 21  1  0  0  0  0
 19 27  4  0  0  0  0
 19 28  4  0  0  0  0
 18 20  2  0  0  0  0
 15 23  1  0  0  0  0
 21 23  1  0  0  0  0
 15 25  4  0  0  0  0
 25 26  4  0  0  0  0
 26 27  4  0  0  0  0
 22 27  2  0  0  0  0
 15 28  4  0  0  0  0
 24 28  2  0  0  0  0
 30 31  1  0  0  0  0
 31 32  1  0  0  0  0
 32 35  1  0  0  0  0
 33 41  4  0  0  0  0
 33 42  4  0  0  0  0
 32 34  2  0  0  0  0
 29 37  1  0  0  0  0
 35 37  1  0  0  0  0
 29 39  4  0  0  0  0
 39 40  4  0  0  0  0
 40 41  4  0  0  0  0
 36 41  2  0  0  0  0
 29 42  4  0  0  0  0
 38 42  2  0  0  0  0
M  END
$$$$
