7FLG
  PyMOL2.5          3D                             0

 11 12  0  0  0  0  0  0  0  0999 V2000
  -34.5076   -7.7374    4.5670 N   0  0  0  0  0  0  0  0  0  0  0  0
  -34.7437   -6.4322    4.0779 C   0  0  0  0  0  0  0  0  0  0  0  0
  -33.8605   -7.8033    5.7413 O   0  0  0  0  0  0  0  0  0  0  0  0
  -35.1474   -6.3190    2.6157 C   0  0  0  0  0  0  0  0  0  0  0  0
  -34.6091   -5.4722    4.8012 O   0  0  0  0  0  0  0  0  0  0  0  0
  -35.7522   -7.5489    1.9290 C   0  0  0  0  0  0  0  0  0  0  0  0
  -36.3929   -6.9701    0.6523 C   0  0  0  0  0  0  0  0  0  0  0  0
  -36.2344   -5.4709    0.8559 C   0  0  0  0  0  0  0  0  0  0  0  0
  -34.7943   -5.1330    0.5376 C   0  0  0  0  0  0  0  0  0  0  0  0
  -34.0246   -5.7712    1.6977 C   0  0  0  0  0  0  0  0  0  0  0  0
  -36.2842   -5.3299    2.3785 C   0  0  0  0  0  0  0  0  0  0  0  0
  1  2  1  0  0  0  0
  1  3  1  0  0  0  0
  2  4  1  0  0  0  0
  2  5  2  0  0  0  0
  4  6  1  0  0  0  0
  6  7  1  0  0  0  0
  7  8  1  0  0  0  0
  8  9  1  0  0  0  0
  8 11  1  0  0  0  0
  9 10  1  0  0  0  0
  4 10  1  0  0  0  0
  4 11  1  0  0  0  0
M  END
$$$$
