7FLN
  PyMOL2.5          3D                             0

 11 12  0  0  0  0  0  0  0  0999 V2000
   15.6720    9.6215  -32.2599 N   0  0  0  0  0  0  0  0  0  0  0  0
   19.1502    8.1355  -29.5291 C   0  0  0  0  0  0  0  0  0  0  0  0
   13.8846    8.2408  -32.2718 O   0  0  0  0  0  0  0  0  0  0  0  0
   18.1236    7.8107  -30.5706 C   0  0  0  0  0  0  0  0  0  0  0  0
   17.2764    8.4314  -27.9488 N   0  3  0  0  0  0  0  0  0  0  0  0
   16.9072    8.6936  -30.4115 C   0  0  0  0  0  0  0  0  0  0  0  0
   15.6249    7.9171  -30.6528 C   0  0  0  0  0  0  0  0  0  0  0  0
   14.9328    8.5626  -31.8189 C   0  0  0  0  0  0  0  0  0  0  0  0
   16.8857    9.8390  -31.4793 C   0  0  0  0  0  0  0  0  0  0  0  0
   16.8888    9.3816  -29.0477 C   0  0  0  0  0  0  0  0  0  0  0  0
   18.5767    7.7705  -28.1775 C   0  0  0  0  0  0  0  0  0  0  0  0
  2  4  1  0  0  0  0
  4  6  1  0  0  0  0
  5 10  1  0  0  0  0
  5 11  1  0  0  0  0
  6  7  1  0  0  0  0
  1  8  1  0  0  0  0
  3  8  2  0  0  0  0
  7  8  1  0  0  0  0
  1  9  1  0  0  0  0
  6  9  1  0  0  0  0
  6 10  1  0  0  0  0
  2 11  1  0  0  0  0
M  END
$$$$
