7FLP
  PyMOL2.5          3D                             0

 22 22  0  0  0  0  0  0  0  0999 V2000
  -12.4058   25.1234    5.2435 N   0  0  0  0  0  0  0  0  0  0  0  0
  -15.3924   27.3278    3.9223 C   0  0  0  0  0  0  0  0  0  0  0  0
  -14.4508   26.2920    3.9931 O   0  0  0  0  0  0  0  0  0  0  0  0
  -14.9811   25.0646    3.7796 C   0  0  0  0  0  0  0  0  0  0  0  0
  -12.5394   22.9033    5.4064 O   0  0  0  0  0  0  0  0  0  0  0  0
  -16.1570   24.9541    3.0624 C   0  0  0  0  0  0  0  0  0  0  0  0
  -16.7622   23.7188    2.9452 C   0  0  0  0  0  0  0  0  0  0  0  0
  -16.1974   22.6049    3.5364 C   0  0  0  0  0  0  0  0  0  0  0  0
  -15.0074   22.7121    4.2351 C   0  0  0  0  0  0  0  0  0  0  0  0
  -14.3726   23.9364    4.3524 C   0  0  0  0  0  0  0  0  0  0  0  0
  -13.0513   23.9368    5.0330 C   0  0  0  0  0  0  0  0  0  0  0  0
   -5.3720   -4.5513    4.7470 N   0  0  0  0  0  0  0  0  0  0  0  0
   -3.0228   -6.7342    2.2388 C   0  0  0  0  0  0  0  0  0  0  0  0
   -3.2761   -5.7234    3.1687 O   0  0  0  0  0  0  0  0  0  0  0  0
   -2.6542   -5.9113    4.3646 C   0  0  0  0  0  0  0  0  0  0  0  0
   -4.2633   -3.3240    6.2300 O   0  0  0  0  0  0  0  0  0  0  0  0
   -1.5671   -6.7587    4.4406 C   0  0  0  0  0  0  0  0  0  0  0  0
   -0.9897   -7.0083    5.6699 C   0  0  0  0  0  0  0  0  0  0  0  0
   -1.4761   -6.4097    6.7948 C   0  0  0  0  0  0  0  0  0  0  0  0
   -2.5442   -5.5503    6.7129 C   0  0  0  0  0  0  0  0  0  0  0  0
   -3.1477   -5.2889    5.5028 C   0  0  0  0  0  0  0  0  0  0  0  0
   -4.2873   -4.3174    5.5251 C   0  0  0  0  0  0  0  0  0  0  0  0
  2  3  1  0  0  0  0
  3  4  1  0  0  0  0
  4  6  4  0  0  0  0
  4 10  4  0  0  0  0
  6  7  4  0  0  0  0
  7  8  4  0  0  0  0
  8  9  4  0  0  0  0
  9 10  4  0  0  0  0
  1 11  1  0  0  0  0
  5 11  2  0  0  0  0
 10 11  1  0  0  0  0
 13 14  1  0  0  0  0
 14 15  1  0  0  0  0
 15 17  4  0  0  0  0
 15 21  4  0  0  0  0
 17 18  4  0  0  0  0
 18 19  4  0  0  0  0
 19 20  4  0  0  0  0
 20 21  4  0  0  0  0
 12 22  1  0  0  0  0
 16 22  2  0  0  0  0
 21 22  1  0  0  0  0
M  END
$$$$
