7FLV
  PyMOL2.5          3D                             0

 28 30  0  0  0  0  0  0  0  0999 V2000
    6.4515   18.8250  -45.1245 N   0  0  0  0  0  0  0  0  0  0  0  0
    8.6970   20.3927  -47.1100 C   0  0  0  0  0  0  0  0  0  0  0  0
    7.5425   24.1079  -48.1508 O   0  0  0  0  0  0  0  0  0  0  0  0
    9.6721   21.3520  -47.2172 C   0  0  0  0  0  0  0  0  0  0  0  0
    6.2492   19.1667  -48.8579 N   0  3  0  0  0  0  0  0  0  0  0  0
   10.2281   23.5530  -47.6421 O   0  0  0  0  0  0  0  0  0  0  0  0
    9.2960   22.6246  -47.5985 C   0  0  0  0  0  0  0  0  0  0  0  0
    7.9602   22.8954  -47.8416 C   0  0  0  0  0  0  0  0  0  0  0  0
    6.9954   21.9497  -47.7452 C   0  0  0  0  0  0  0  0  0  0  0  0
    7.3787   20.6920  -47.3906 C   0  0  0  0  0  0  0  0  0  0  0  0
    6.3297   19.6476  -47.3916 C   0  0  0  0  0  0  0  0  0  0  0  0
    6.6778   18.4329  -46.4997 C   0  0  0  0  0  0  0  0  0  0  0  0
    8.5648   24.9629  -48.5772 C   0  0  0  0  0  0  0  0  0  0  0  0
    9.7327   24.8589  -47.6303 C   0  0  0  0  0  0  0  0  0  0  0  0
   28.6258   10.4667  -28.3298 N   0  0  0  0  0  0  0  0  0  0  0  0
   28.1594   14.9372  -28.5428 C   0  0  0  0  0  0  0  0  0  0  0  0
   26.3788   15.6056  -32.1810 O   0  0  0  0  0  0  0  0  0  0  0  0
   28.2067   16.1884  -29.1052 C   0  0  0  0  0  0  0  0  0  0  0  0
   25.9519   12.2493  -28.2802 N   0  3  0  0  0  0  0  0  0  0  0  0
   27.6347   17.6849  -30.8223 O   0  0  0  0  0  0  0  0  0  0  0  0
   27.6031   16.4222  -30.3338 C   0  0  0  0  0  0  0  0  0  0  0  0
   26.9573   15.3891  -30.9860 C   0  0  0  0  0  0  0  0  0  0  0  0
   26.8818   14.1082  -30.4131 C   0  0  0  0  0  0  0  0  0  0  0  0
   27.4971   13.9099  -29.1748 C   0  0  0  0  0  0  0  0  0  0  0  0
   27.4452   12.5919  -28.5018 C   0  0  0  0  0  0  0  0  0  0  0  0
   28.1642   11.4599  -29.3037 C   0  0  0  0  0  0  0  0  0  0  0  0
   25.8443   16.8901  -32.2444 C   0  0  0  0  0  0  0  0  0  0  0  0
   26.9812   17.8889  -32.0508 C   0  0  0  0  0  0  0  0  0  0  0  0
  2  4  4  0  0  0  0
  4  7  4  0  0  0  0
  5 11  1  0  0  0  0
  6  7  1  0  0  0  0
  3  8  1  0  0  0  0
  7  8  4  0  0  0  0
  8  9  4  0  0  0  0
  2 10  4  0  0  0  0
  9 10  4  0  0  0  0
 10 11  1  0  0  0  0
  1 12  1  0  0  0  0
 11 12  1  0  0  0  0
  3 13  1  0  0  0  0
 13 14  1  0  0  0  0
  6 14  1  0  0  0  0
 16 18  4  0  0  0  0
 18 21  4  0  0  0  0
 19 25  1  0  0  0  0
 20 21  1  0  0  0  0
 17 22  1  0  0  0  0
 21 22  4  0  0  0  0
 22 23  4  0  0  0  0
 16 24  4  0  0  0  0
 23 24  4  0  0  0  0
 24 25  1  0  0  0  0
 15 26  1  0  0  0  0
 25 26  1  0  0  0  0
 17 27  1  0  0  0  0
 27 28  1  0  0  0  0
 20 28  1  0  0  0  0
M  END
$$$$
