7FLW
  PyMOL2.5          3D                             0

 12 12  0  0  0  0  0  0  0  0999 V2000
   57.5931   -4.5239  -19.1682 N   0  3  0  0  0  0  0  0  0  0  0  0
   57.9806   -9.2015  -18.6838 C   0  0  0  0  0  0  0  0  0  0  0  0
   57.0820   -9.1406  -19.7722 C   0  0  0  0  0  0  0  0  0  0  0  0
   56.8585  -10.3136  -20.3956 C   0  0  0  0  0  0  0  0  0  0  0  0
   55.9967  -10.4297  -21.4293 C   0  0  0  0  0  0  0  0  0  0  0  0
   55.3623   -9.2962  -21.8751 C   0  0  0  0  0  0  0  0  0  0  0  0
   55.5744   -8.1033  -21.2592 C   0  0  0  0  0  0  0  0  0  0  0  0
   56.4356   -8.0104  -20.1740 C   0  0  0  0  0  0  0  0  0  0  0  0
   56.5521   -6.7312  -19.4373 C   0  0  0  0  0  0  0  0  0  0  0  0
   57.5336   -5.7774  -20.0334 C   0  0  0  0  0  0  0  0  0  0  0  0
   57.1301   -5.2563  -21.3652 C   0  0  0  0  0  0  0  0  0  0  0  0
   58.8966   -6.3949  -20.0290 C   0  0  0  0  0  0  0  0  0  0  0  0
  2  3  1  0  0  0  0
  3  4  4  0  0  0  0
  3  8  4  0  0  0  0
  4  5  4  0  0  0  0
  5  6  4  0  0  0  0
  6  7  4  0  0  0  0
  7  8  4  0  0  0  0
  8  9  1  0  0  0  0
  9 10  1  0  0  0  0
  1 10  1  0  0  0  0
 10 11  1  0  0  0  0
 10 12  1  0  0  0  0
M  END
$$$$
