7FLX
  PyMOL2.5          3D                             0

 11 11  0  0  0  0  0  0  0  0999 V2000
   37.2249   23.0883  -31.5682 N   0  0  0  0  0  0  0  0  0  0  0  0
   34.2057   21.9540  -35.2488 C   0  0  0  0  0  0  0  0  0  0  0  0
   34.9572   23.2891  -31.3298 O   0  0  0  0  0  0  0  0  0  0  0  0
   37.7505   20.8317  -32.9667 Cl  0  0  0  0  0  0  0  0  0  0  0  0
   34.9194   20.8250  -35.6253 C   0  0  0  0  0  0  0  0  0  0  0  0
   38.4570   22.8228  -32.1379 N   0  0  0  0  0  0  0  0  0  0  0  0
   36.0219   20.4331  -34.8722 C   0  0  0  0  0  0  0  0  0  0  0  0
   36.3598   21.1818  -33.7612 C   0  0  0  0  0  0  0  0  0  0  0  0
   35.6535   22.2606  -33.3412 C   0  0  0  0  0  0  0  0  0  0  0  0
   34.5643   22.6787  -34.1191 C   0  0  0  0  0  0  0  0  0  0  0  0
   35.9052   22.9045  -32.0331 C   0  0  0  0  0  0  0  0  0  0  0  0
  4  8  1  0  0  0  0
  2  5  4  0  0  0  0
  1  6  1  0  0  0  0
  5  7  4  0  0  0  0
  7  8  4  0  0  0  0
  8  9  4  0  0  0  0
  9 10  4  0  0  0  0
  9 11  1  0  0  0  0
  2 10  4  0  0  0  0
  1 11  1  0  0  0  0
  3 11  2  0  0  0  0
M  END
$$$$
