7FLY
  PyMOL2.5          3D                             0

 18 18  0  0  0  0  0  0  0  0999 V2000
   -0.5714   20.8143  -27.3306 N   0  3  0  0  0  0  0  0  0  0  0  0
    1.0099   19.5934  -25.9550 C   0  0  0  0  0  0  0  0  0  0  0  0
    0.7744   19.1778  -23.2851 O   0  0  0  0  0  0  0  0  0  0  0  0
    0.7808   20.1321  -27.3467 C   0  0  0  0  0  0  0  0  0  0  0  0
    2.0219   20.9444  -22.7309 N   0  0  0  0  0  0  0  0  0  0  0  0
   -0.4532   22.0291  -26.4821 C   0  0  0  0  0  0  0  0  0  0  0  0
   -0.1773   21.5423  -25.0786 C   0  0  0  0  0  0  0  0  0  0  0  0
    1.1038   20.7472  -25.0236 C   0  0  0  0  0  0  0  0  0  0  0  0
    1.2993   20.2226  -23.6137 C   0  0  0  0  0  0  0  0  0  0  0  0
   -0.6932   -5.0198    6.9866 N   0  3  0  0  0  0  0  0  0  0  0  0
   -1.5545   -4.3403    4.7703 C   0  0  0  0  0  0  0  0  0  0  0  0
   -3.3005   -5.6941    2.5992 O   0  0  0  0  0  0  0  0  0  0  0  0
   -0.3294   -4.3202    5.6857 C   0  0  0  0  0  0  0  0  0  0  0  0
   -1.3241   -6.6259    2.4131 N   0  0  0  0  0  0  0  0  0  0  0  0
   -1.0009   -6.4990    6.7360 C   0  0  0  0  0  0  0  0  0  0  0  0
   -1.1653   -6.7792    5.2458 C   0  0  0  0  0  0  0  0  0  0  0  0
   -2.0811   -5.7473    4.6052 C   0  0  0  0  0  0  0  0  0  0  0  0
   -2.2888   -6.0226    3.1302 C   0  0  0  0  0  0  0  0  0  0  0  0
  1  4  1  0  0  0  0
  2  4  1  0  0  0  0
  5  9  1  0  0  0  0
  1  6  1  0  0  0  0
  6  7  1  0  0  0  0
  2  8  1  0  0  0  0
  7  8  1  0  0  0  0
  3  9  2  0  0  0  0
  8  9  1  0  0  0  0
 10 13  1  0  0  0  0
 11 13  1  0  0  0  0
 14 18  1  0  0  0  0
 10 15  1  0  0  0  0
 15 16  1  0  0  0  0
 11 17  1  0  0  0  0
 16 17  1  0  0  0  0
 12 18  2  0  0  0  0
 17 18  1  0  0  0  0
M  END
$$$$
