7FM0
  PyMOL2.5          3D                             0

 12 12  0  0  0  0  0  0  0  0999 V2000
   73.2549   -5.6377  -20.8130 N   0  3  0  0  0  0  0  0  0  0  0  0
   73.8070   -7.5352  -19.3512 C   0  0  0  0  0  0  0  0  0  0  0  0
   73.3522   -5.0909  -21.8674 O   0  0  0  0  0  0  0  0  0  0  0  0
   74.3915   -8.7394  -19.1458 C   0  0  0  0  0  0  0  0  0  0  0  0
   75.0876  -10.6421  -23.0148 N   0  3  0  0  0  0  0  0  0  0  0  0
   72.6145   -5.1736  -19.9153 O   0  5  0  0  0  0  0  0  0  0  0  0
   75.0900   -9.3952  -20.1894 C   0  0  0  0  0  0  0  0  0  0  0  0
   75.6240  -10.5173  -20.0178 O   0  5  0  0  0  0  0  0  0  0  0  0
   75.1703   -8.7476  -21.4570 C   0  0  0  0  0  0  0  0  0  0  0  0
   74.5762   -7.5212  -21.6548 C   0  0  0  0  0  0  0  0  0  0  0  0
   73.8959   -6.9233  -20.6127 C   0  0  0  0  0  0  0  0  0  0  0  0
   75.9065   -9.4175  -22.5599 C   0  0  0  0  0  0  0  0  0  0  0  0
  1  3  4  0  0  0  0
  2  4  4  0  0  0  0
  4  7  4  0  0  0  0
  5 12  1  0  0  0  0
  1  6  4  0  0  0  0
  7  8  2  0  0  0  0
  7  9  4  0  0  0  0
  9 10  4  0  0  0  0
  1 11  1  0  0  0  0
  2 11  4  0  0  0  0
 10 11  4  0  0  0  0
  9 12  1  0  0  0  0
M  END
$$$$
