7FM1
  PyMOL2.5          3D                             0

 30 32  0  0  0  0  0  0  0  0999 V2000
   13.9626   27.2989    4.8123 N   0  3  0  0  0  0  0  0  0  0  0  0
   10.8658   29.3429    2.0065 C   0  0  0  0  0  0  0  0  0  0  0  0
   11.6835   28.2451    2.3171 O   0  0  0  0  0  0  0  0  0  0  0  0
   12.6327   28.4169    3.1920 C   0  0  0  0  0  0  0  0  0  0  0  0
   12.8340   29.4536    3.7544 O   0  0  0  0  0  0  0  0  0  0  0  0
   13.4404   27.1282    3.4260 C   0  0  0  0  0  0  0  0  0  0  0  0
   17.4972   26.9862   -0.4305 O   0  0  0  0  0  0  0  0  0  0  0  0
   14.6031   26.9931    2.4766 C   0  0  0  0  0  0  0  0  0  0  0  0
   14.3360   26.6284    1.1969 C   0  0  0  0  0  0  0  0  0  0  0  0
   15.3130   26.6158    0.2551 C   0  0  0  0  0  0  0  0  0  0  0  0
   16.6438   26.9771    0.5772 C   0  0  0  0  0  0  0  0  0  0  0  0
   16.9404   27.3038    1.8911 C   0  0  0  0  0  0  0  0  0  0  0  0
   15.8774   27.2966    2.8254 C   0  0  0  0  0  0  0  0  0  0  0  0
   16.2236   27.6582    4.1949 C   0  0  0  0  0  0  0  0  0  0  0  0
   15.0544   28.3420    4.8125 C   0  0  0  0  0  0  0  0  0  0  0  0
   32.9603    6.8390   21.1868 N   0  3  0  0  0  0  0  0  0  0  0  0
   37.0216    7.5929   19.0471 C   0  0  0  0  0  0  0  0  0  0  0  0
   36.1094    6.6874   19.5991 O   0  0  0  0  0  0  0  0  0  0  0  0
   35.2378    7.1714   20.4510 C   0  0  0  0  0  0  0  0  0  0  0  0
   35.1782    8.3179   20.7867 O   0  0  0  0  0  0  0  0  0  0  0  0
   34.2956    6.1079   20.9788 C   0  0  0  0  0  0  0  0  0  0  0  0
   36.3396    4.0757   25.7171 O   0  0  0  0  0  0  0  0  0  0  0  0
   34.8281    5.5930   22.2799 C   0  0  0  0  0  0  0  0  0  0  0  0
   36.1437    5.1364   22.3313 C   0  0  0  0  0  0  0  0  0  0  0  0
   36.6528    4.6274   23.4951 C   0  0  0  0  0  0  0  0  0  0  0  0
   35.8143    4.5743   24.6142 C   0  0  0  0  0  0  0  0  0  0  0  0
   34.5243    5.0193   24.5703 C   0  0  0  0  0  0  0  0  0  0  0  0
   34.0382    5.5391   23.4060 C   0  0  0  0  0  0  0  0  0  0  0  0
   32.6475    6.0416   23.4335 C   0  0  0  0  0  0  0  0  0  0  0  0
   32.0384    6.0067   22.0573 C   0  0  0  0  0  0  0  0  0  0  0  0
  1 15  1  0  0  0  0
  2  3  1  0  0  0  0
  3  4  1  0  0  0  0
  4  6  1  0  0  0  0
  4  5  2  0  0  0  0
  1  6  1  0  0  0  0
  6  8  1  0  0  0  0
  8  9  4  0  0  0  0
  9 10  4  0  0  0  0
 10 11  4  0  0  0  0
  7 11  1  0  0  0  0
 11 12  4  0  0  0  0
 12 13  4  0  0  0  0
  8 13  4  0  0  0  0
 13 14  1  0  0  0  0
 14 15  1  0  0  0  0
 16 30  1  0  0  0  0
 17 18  1  0  0  0  0
 18 19  1  0  0  0  0
 19 21  1  0  0  0  0
 19 20  2  0  0  0  0
 16 21  1  0  0  0  0
 21 23  1  0  0  0  0
 23 24  4  0  0  0  0
 24 25  4  0  0  0  0
 25 26  4  0  0  0  0
 22 26  1  0  0  0  0
 26 27  4  0  0  0  0
 27 28  4  0  0  0  0
 23 28  4  0  0  0  0
 28 29  1  0  0  0  0
 29 30  1  0  0  0  0
M  END
$$$$
