7FM3
  PyMOL2.5          3D                             0

 13 14  0  0  0  0  0  0  0  0999 V2000
   30.8981    8.8218  -29.1112 N   0  0  0  0  0  0  0  0  0  0  0  0
   35.3672   11.4687  -31.5441 C   0  0  0  0  0  0  0  0  0  0  0  0
   34.4318   10.6186  -30.9762 O   0  0  0  0  0  0  0  0  0  0  0  0
   33.2089   11.0586  -30.5723 C   0  0  0  0  0  0  0  0  0  0  0  0
   31.1220    9.9540  -29.6594 N   0  0  0  0  0  0  0  0  0  0  0  0
   32.8692   12.1963  -30.6123 O   0  0  0  0  0  0  0  0  0  0  0  0
   32.5047    9.9631  -30.1046 C   0  0  0  0  0  0  0  0  0  0  0  0
   33.0282    8.7311  -29.7814 C   0  0  0  0  0  0  0  0  0  0  0  0
   31.9669    8.0258  -29.1545 C   0  0  0  0  0  0  0  0  0  0  0  0
   32.0639    6.6788  -28.6632 C   0  0  0  0  0  0  0  0  0  0  0  0
   33.4780    6.1477  -28.8832 C   0  0  0  0  0  0  0  0  0  0  0  0
   34.1552    6.7193  -30.1408 C   0  0  0  0  0  0  0  0  0  0  0  0
   34.3336    8.1715  -29.8569 C   0  0  0  0  0  0  0  0  0  0  0  0
  2  3  1  0  0  0  0
  3  4  1  0  0  0  0
  4  7  1  0  0  0  0
  1  5  4  0  0  0  0
  5  7  4  0  0  0  0
  4  6  2  0  0  0  0
  7  8  4  0  0  0  0
  1  9  4  0  0  0  0
  8  9  4  0  0  0  0
  9 10  1  0  0  0  0
 10 11  1  0  0  0  0
 11 12  1  0  0  0  0
 12 13  1  0  0  0  0
  8 13  1  0  0  0  0
M  END
$$$$
