7FM7
  PyMOL2.5          3D                             0

 24 24  0  0  0  0  0  0  0  0999 V2000
   32.2045    2.5534  -24.0788 C   0  0  0  0  0  0  0  0  0  0  0  0
   31.4055    2.1328  -23.0382 O   0  0  0  0  0  0  0  0  0  0  0  0
   31.4187    2.8803  -21.9398 C   0  0  0  0  0  0  0  0  0  0  0  0
   29.8760    1.4205  -21.0126 O   0  0  0  0  0  0  0  0  0  0  0  0
   32.2165    3.9792  -21.8670 C   0  0  0  0  0  0  0  0  0  0  0  0
   33.1944    8.1838  -20.8469 O   0  0  0  0  0  0  0  0  0  0  0  0
   32.2389    4.7022  -20.7223 C   0  0  0  0  0  0  0  0  0  0  0  0
   31.4730    4.3170  -19.6743 C   0  0  0  0  0  0  0  0  0  0  0  0
   30.6715    3.2242  -19.7342 C   0  0  0  0  0  0  0  0  0  0  0  0
   30.6402    2.5071  -20.8673 C   0  0  0  0  0  0  0  0  0  0  0  0
   33.1159    5.9143  -20.5836 C   0  0  0  0  0  0  0  0  0  0  0  0
   32.5182    7.0895  -21.3280 C   0  0  0  0  0  0  0  0  0  0  0  0
    7.7195   63.5330   -2.9071 C   0  0  0  0  0  0  0  0  0  0  0  0
    7.7247   62.4137   -3.7247 O   0  0  0  0  0  0  0  0  0  0  0  0
    7.7394   61.2290   -3.0562 C   0  0  0  0  0  0  0  0  0  0  0  0
    7.3526   60.1866   -5.0921 O   0  0  0  0  0  0  0  0  0  0  0  0
    7.9805   61.1850   -1.6947 C   0  0  0  0  0  0  0  0  0  0  0  0
    8.0412   60.1083    2.5451 O   0  0  0  0  0  0  0  0  0  0  0  0
    8.1053   59.9468   -1.0898 C   0  0  0  0  0  0  0  0  0  0  0  0
    7.9295   58.7942   -1.8156 C   0  0  0  0  0  0  0  0  0  0  0  0
    7.6625   58.8402   -3.1605 C   0  0  0  0  0  0  0  0  0  0  0  0
    7.5780   60.0540   -3.7823 C   0  0  0  0  0  0  0  0  0  0  0  0
    8.5561   59.8301    0.3182 C   0  0  0  0  0  0  0  0  0  0  0  0
    7.4803   60.2999    1.2756 C   0  0  0  0  0  0  0  0  0  0  0  0
  1  2  1  0  0  0  0
  2  3  1  0  0  0  0
  3  5  4  0  0  0  0
  3 10  4  0  0  0  0
  4 10  1  0  0  0  0
  5  7  4  0  0  0  0
  7  8  4  0  0  0  0
  8  9  4  0  0  0  0
  9 10  4  0  0  0  0
  7 11  1  0  0  0  0
 11 12  1  0  0  0  0
  6 12  1  0  0  0  0
 13 14  1  0  0  0  0
 14 15  1  0  0  0  0
 15 17  4  0  0  0  0
 15 22  4  0  0  0  0
 16 22  1  0  0  0  0
 17 19  4  0  0  0  0
 19 20  4  0  0  0  0
 20 21  4  0  0  0  0
 21 22  4  0  0  0  0
 19 23  1  0  0  0  0
 23 24  1  0  0  0  0
 18 24  1  0  0  0  0
M  END
$$$$
