7FMI
  PyMOL2.5          3D                             0

 72 72  0  0  0  0  0  0  0  0999 V2000
   17.7162   -9.6180   39.2327 N   0  0  0  0  0  0  0  0  0  0  0  0
   15.7908   -8.8535   35.7206 C   0  0  0  0  0  0  0  0  0  0  0  0
   16.5572   -9.4183   36.7699 O   0  0  0  0  0  0  0  0  0  0  0  0
   17.7367   -8.7925   36.9881 C   0  0  0  0  0  0  0  0  0  0  0  0
   18.9854   -9.0521   41.0555 O   0  0  0  0  0  0  0  0  0  0  0  0
   18.3230   -8.1234   35.9669 C   0  0  0  0  0  0  0  0  0  0  0  0
   14.1825  -10.6251   44.7034 O   0  0  0  0  0  0  0  0  0  0  0  0
   19.5488   -7.5360   36.1655 C   0  0  0  0  0  0  0  0  0  0  0  0
   12.9179  -11.2420   43.0251 O   0  5  0  0  0  0  0  0  0  0  0  0
   20.1547   -7.6138   37.3878 C   0  0  0  0  0  0  0  0  0  0  0  0
   19.5533   -8.2747   38.4218 C   0  0  0  0  0  0  0  0  0  0  0  0
   18.3405   -8.8814   38.2401 C   0  0  0  0  0  0  0  0  0  0  0  0
   18.0630   -9.6729   40.5938 C   0  0  0  0  0  0  0  0  0  0  0  0
   17.1655  -10.5934   41.3941 C   0  0  0  0  0  0  0  0  0  0  0  0
   17.0932  -10.3842   42.8997 C   0  0  0  0  0  0  0  0  0  0  0  0
   16.0200   -9.3605   43.2103 C   0  0  0  0  0  0  0  0  0  0  0  0
   14.6847   -9.7241   42.5770 C   0  0  0  0  0  0  0  0  0  0  0  0
   13.8528  -10.6188   43.5181 C   0  0  0  0  0  0  0  0  0  0  0  0
   27.4411   -2.3742   60.9183 N   0  0  0  0  0  0  0  0  0  0  0  0
   30.1925   -5.2799   61.3903 C   0  0  0  0  0  0  0  0  0  0  0  0
   29.3663   -4.2418   61.3101 O   0  0  0  0  0  0  0  0  0  0  0  0
   29.5466   -3.4126   60.2984 C   0  0  0  0  0  0  0  0  0  0  0  0
   27.6096   -0.2638   61.5644 O   0  0  0  0  0  0  0  0  0  0  0  0
   30.6591   -3.4818   59.5198 C   0  0  0  0  0  0  0  0  0  0  0  0
   28.6324   -2.2475   66.7110 O   0  5  0  0  0  0  0  0  0  0  0  0
   30.7995   -2.5851   58.5091 C   0  0  0  0  0  0  0  0  0  0  0  0
   27.1142   -3.6121   67.2083 O   0  0  0  0  0  0  0  0  0  0  0  0
   29.8724   -1.6375   58.2646 C   0  0  0  0  0  0  0  0  0  0  0  0
   28.7648   -1.5338   59.0297 C   0  0  0  0  0  0  0  0  0  0  0  0
   28.5652   -2.4266   60.0752 C   0  0  0  0  0  0  0  0  0  0  0  0
   27.0482   -1.2632   61.6076 C   0  0  0  0  0  0  0  0  0  0  0  0
   25.8590   -1.4053   62.4188 C   0  0  0  0  0  0  0  0  0  0  0  0
   26.0729   -0.7519   63.7201 C   0  0  0  0  0  0  0  0  0  0  0  0
   26.9551   -1.6417   64.5086 C   0  0  0  0  0  0  0  0  0  0  0  0
   26.5238   -1.7282   65.9408 C   0  0  0  0  0  0  0  0  0  0  0  0
   27.5093   -2.6311   66.7072 C   0  0  0  0  0  0  0  0  0  0  0  0
   67.2573   34.9628   19.7300 N   0  0  0  0  0  0  0  0  0  0  0  0
   65.7647   38.5238   18.1069 C   0  0  0  0  0  0  0  0  0  0  0  0
   66.3199   37.4086   18.7304 O   0  0  0  0  0  0  0  0  0  0  0  0
   66.3951   36.3019   17.9015 C   0  0  0  0  0  0  0  0  0  0  0  0
   69.0344   36.3843   19.7271 O   0  0  0  0  0  0  0  0  0  0  0  0
   66.0172   36.3978   16.5733 C   0  0  0  0  0  0  0  0  0  0  0  0
   69.8998   32.0585   25.2902 O   0  0  0  0  0  0  0  0  0  0  0  0
   66.0815   35.3145   15.7494 C   0  0  0  0  0  0  0  0  0  0  0  0
   69.6813   30.1606   24.1787 O   0  5  0  0  0  0  0  0  0  0  0  0
   66.5172   34.1255   16.2414 C   0  0  0  0  0  0  0  0  0  0  0  0
   66.8857   34.0367   17.5455 C   0  0  0  0  0  0  0  0  0  0  0  0
   66.8432   35.1045   18.4037 C   0  0  0  0  0  0  0  0  0  0  0  0
   68.3486   35.5844   20.3224 C   0  0  0  0  0  0  0  0  0  0  0  0
   68.5748   35.2001   21.7747 C   0  0  0  0  0  0  0  0  0  0  0  0
   68.5803   33.6743   21.9931 C   0  0  0  0  0  0  0  0  0  0  0  0
   68.1345   33.3644   23.4451 C   0  0  0  0  0  0  0  0  0  0  0  0
   68.0292   31.8727   23.7637 C   0  0  0  0  0  0  0  0  0  0  0  0
   69.3192   31.3182   24.4711 C   0  0  0  0  0  0  0  0  0  0  0  0
   44.3968   19.2655   23.6123 N   0  0  0  0  0  0  0  0  0  0  0  0
   43.7255   20.0431   21.0943 C   0  0  0  0  0  0  0  0  0  0  0  0
   44.8644   20.7624   21.3459 O   0  0  0  0  0  0  0  0  0  0  0  0
   45.8668   20.0940   21.9607 C   0  0  0  0  0  0  0  0  0  0  0  0
   44.7651   17.8574   25.2904 O   0  0  0  0  0  0  0  0  0  0  0  0
   47.0732   20.1952   21.3864 C   0  0  0  0  0  0  0  0  0  0  0  0
   45.2477   18.6834   28.3123 O   0  0  0  0  0  0  0  0  0  0  0  0
   48.1357   19.6549   21.9982 C   0  0  0  0  0  0  0  0  0  0  0  0
   43.6588   17.9946   29.6551 O   0  5  0  0  0  0  0  0  0  0  0  0
   47.9572   19.0177   23.1995 C   0  0  0  0  0  0  0  0  0  0  0  0
   46.7466   18.9035   23.7925 C   0  0  0  0  0  0  0  0  0  0  0  0
   45.6759   19.4307   23.1504 C   0  0  0  0  0  0  0  0  0  0  0  0
   43.9920   18.4851   24.6409 C   0  0  0  0  0  0  0  0  0  0  0  0
   42.5080   18.5246   24.8750 C   0  0  0  0  0  0  0  0  0  0  0  0
   42.0129   17.2814   25.5777 C   0  0  0  0  0  0  0  0  0  0  0  0
   42.7285   17.1648   26.9198 C   0  0  0  0  0  0  0  0  0  0  0  0
   43.0433   18.5542   27.4566 C   0  0  0  0  0  0  0  0  0  0  0  0
   44.0746   18.3985   28.5788 C   0  0  0  0  0  0  0  0  0  0  0  0
  2  3  1  0  0  0  0
  3  4  1  0  0  0  0
  4  6  4  0  0  0  0
  4 12  4  0  0  0  0
  6  8  4  0  0  0  0
  9 18  4  0  0  0  0
  8 10  4  0  0  0  0
 10 11  4  0  0  0  0
 11 12  4  0  0  0  0
  1 12  1  0  0  0  0
  1 13  1  0  0  0  0
  5 13  2  0  0  0  0
 13 14  1  0  0  0  0
 14 15  1  0  0  0  0
 15 16  1  0  0  0  0
 16 17  1  0  0  0  0
  7 18  4  0  0  0  0
 17 18  1  0  0  0  0
 20 21  1  0  0  0  0
 21 22  1  0  0  0  0
 22 24  4  0  0  0  0
 22 30  4  0  0  0  0
 24 26  4  0  0  0  0
 27 36  4  0  0  0  0
 26 28  4  0  0  0  0
 28 29  4  0  0  0  0
 29 30  4  0  0  0  0
 19 30  1  0  0  0  0
 19 31  1  0  0  0  0
 23 31  2  0  0  0  0
 31 32  1  0  0  0  0
 32 33  1  0  0  0  0
 33 34  1  0  0  0  0
 34 35  1  0  0  0  0
 25 36  4  0  0  0  0
 35 36  1  0  0  0  0
 38 39  1  0  0  0  0
 39 40  1  0  0  0  0
 40 42  4  0  0  0  0
 40 48  4  0  0  0  0
 42 44  4  0  0  0  0
 45 54  4  0  0  0  0
 44 46  4  0  0  0  0
 46 47  4  0  0  0  0
 47 48  4  0  0  0  0
 37 48  1  0  0  0  0
 37 49  1  0  0  0  0
 41 49  2  0  0  0  0
 49 50  1  0  0  0  0
 50 51  1  0  0  0  0
 51 52  1  0  0  0  0
 52 53  1  0  0  0  0
 43 54  4  0  0  0  0
 53 54  1  0  0  0  0
 56 57  1  0  0  0  0
 57 58  1  0  0  0  0
 58 60  4  0  0  0  0
 58 66  4  0  0  0  0
 60 62  4  0  0  0  0
 63 72  4  0  0  0  0
 62 64  4  0  0  0  0
 64 65  4  0  0  0  0
 65 66  4  0  0  0  0
 55 66  1  0  0  0  0
 55 67  1  0  0  0  0
 59 67  2  0  0  0  0
 67 68  1  0  0  0  0
 68 69  1  0  0  0  0
 69 70  1  0  0  0  0
 70 71  1  0  0  0  0
 61 72  4  0  0  0  0
 71 72  1  0  0  0  0
M  END
$$$$
