7FMR
  PyMOL2.5          3D                             0

 13 13  0  0  0  0  0  0  0  0999 V2000
  -10.6747    3.8814    7.8587 N   0  0  0  0  0  0  0  0  0  0  0  0
  -10.0842    4.4108    9.0899 C   0  0  0  0  0  0  0  0  0  0  0  0
  -12.6948    4.5077    8.7523 O   0  0  0  0  0  0  0  0  0  0  0  0
   -9.8167    2.8050    7.2485 C   0  0  0  0  0  0  0  0  0  0  0  0
  -16.8419    4.6315    6.9644 N   0  0  0  0  0  0  0  0  0  0  0  0
  -12.6432    2.8018    7.2548 O   0  0  0  0  0  0  0  0  0  0  0  0
  -12.0468    3.7399    7.9955 C   0  0  0  0  0  0  0  0  0  0  0  0
  -14.0006    2.6695    7.4436 C   0  0  0  0  0  0  0  0  0  0  0  0
  -14.3101    1.9273    8.5337 C   0  0  0  0  0  0  0  0  0  0  0  0
  -15.5727    2.0736    9.0196 C   0  0  0  0  0  0  0  0  0  0  0  0
  -16.4594    2.9026    8.4434 C   0  0  0  0  0  0  0  0  0  0  0  0
  -16.0797    3.6055    7.3432 C   0  0  0  0  0  0  0  0  0  0  0  0
  -14.8475    3.4576    6.7769 C   0  0  0  0  0  0  0  0  0  0  0  0
  1  2  1  0  0  0  0
  1  4  1  0  0  0  0
  5 12  1  0  0  0  0
  6  7  1  0  0  0  0
  6  8  1  0  0  0  0
  1  7  1  0  0  0  0
  3  7  2  0  0  0  0
  8  9  4  0  0  0  0
  9 10  4  0  0  0  0
 10 11  4  0  0  0  0
 11 12  4  0  0  0  0
 12 13  4  0  0  0  0
  8 13  4  0  0  0  0
M  END
$$$$
