7FMT
  PyMOL2.5          3D                             0

 12 12  0  0  0  0  0  0  0  0999 V2000
   37.8085   28.5576   18.9307 N   0  0  0  0  0  0  0  0  0  0  0  0
   38.5033   30.4664   12.5817 C   0  0  0  0  0  0  0  0  0  0  0  0
   38.4597   28.7874   14.1669 O   0  0  0  0  0  0  0  0  0  0  0  0
   38.8427   29.0372   12.8603 C   0  0  0  0  0  0  0  0  0  0  0  0
   38.8479   30.4579   19.7149 N   0  0  0  0  0  0  0  0  0  0  0  0
   39.9096   30.3377   14.8929 O   0  0  0  0  0  0  0  0  0  0  0  0
   39.0424   29.5159   15.1176 C   0  0  0  0  0  0  0  0  0  0  0  0
   38.5448   29.1738   16.4210 C   0  0  0  0  0  0  0  0  0  0  0  0
   37.8228   28.0545   16.6215 C   0  0  0  0  0  0  0  0  0  0  0  0
   37.4868   27.7980   17.9088 C   0  0  0  0  0  0  0  0  0  0  0  0
   38.5180   29.6746   18.6787 C   0  0  0  0  0  0  0  0  0  0  0  0
   38.9031   30.0251   17.4278 C   0  0  0  0  0  0  0  0  0  0  0  0
  2  4  1  0  0  0  0
  3  4  1  0  0  0  0
  5 11  1  0  0  0  0
  6  7  2  0  0  0  0
  3  7  1  0  0  0  0
  7  8  1  0  0  0  0
  8  9  4  0  0  0  0
  1 10  4  0  0  0  0
  9 10  4  0  0  0  0
  1 11  4  0  0  0  0
  8 12  4  0  0  0  0
 11 12  4  0  0  0  0
M  END
$$$$
