7FMW
  PyMOL2.5          3D                             0

 28 30  0  0  0  0  0  0  0  0999 V2000
  -12.6908    5.5588   11.9896 N   0  0  0  0  0  0  0  0  0  0  0  0
  -11.3165   10.1552   11.3302 C   0  0  0  0  0  0  0  0  0  0  0  0
  -13.3838    4.4644   11.8229 O   0  0  0  0  0  0  0  0  0  0  0  0
  -11.9589    9.8501   10.1721 C   0  0  0  0  0  0  0  0  0  0  0  0
  -14.8302    2.3803   11.1160 O   0  0  0  0  0  0  0  0  0  0  0  0
  -12.5507    8.6289   10.0260 C   0  0  0  0  0  0  0  0  0  0  0  0
  -16.1549    3.5896    9.8739 O   0  5  0  0  0  0  0  0  0  0  0  0
  -12.5076    7.7159   11.1027 C   0  0  0  0  0  0  0  0  0  0  0  0
  -11.8304    8.0430   12.2333 C   0  0  0  0  0  0  0  0  0  0  0  0
  -11.2248    9.2620   12.3669 C   0  0  0  0  0  0  0  0  0  0  0  0
  -13.1404    6.4630   11.1412 C   0  0  0  0  0  0  0  0  0  0  0  0
  -14.2024    5.8784   10.3779 C   0  0  0  0  0  0  0  0  0  0  0  0
  -14.3021    4.6054   10.8761 C   0  0  0  0  0  0  0  0  0  0  0  0
  -15.1945    3.4188   10.5873 C   0  0  0  0  0  0  0  0  0  0  0  0
  -16.7582   12.5221   16.2259 N   0  0  0  0  0  0  0  0  0  0  0  0
  -14.0713   10.8134   19.8028 C   0  0  0  0  0  0  0  0  0  0  0  0
  -17.6606   12.4184   15.3023 O   0  0  0  0  0  0  0  0  0  0  0  0
  -13.9156   11.7952   18.8954 C   0  0  0  0  0  0  0  0  0  0  0  0
  -19.5165    9.7930   14.2176 O   0  5  0  0  0  0  0  0  0  0  0  0
  -14.7823   11.9609   17.8787 C   0  0  0  0  0  0  0  0  0  0  0  0
  -19.7648   11.8420   13.5795 O   0  0  0  0  0  0  0  0  0  0  0  0
  -15.8164   11.1585   17.7596 C   0  0  0  0  0  0  0  0  0  0  0  0
  -16.0230   10.1832   18.6340 C   0  0  0  0  0  0  0  0  0  0  0  0
  -15.1374   10.0089   19.6659 C   0  0  0  0  0  0  0  0  0  0  0  0
  -16.6818   11.3831   16.7525 C   0  0  0  0  0  0  0  0  0  0  0  0
  -17.5955   10.4984   16.1144 C   0  0  0  0  0  0  0  0  0  0  0  0
  -18.1763   11.2355   15.2146 C   0  0  0  0  0  0  0  0  0  0  0  0
  -19.2715   10.9387   14.2336 C   0  0  0  0  0  0  0  0  0  0  0  0
  1  3  4  0  0  0  0
  2  4  4  0  0  0  0
  4  6  4  0  0  0  0
  6  8  4  0  0  0  0
  8  9  4  0  0  0  0
  2 10  4  0  0  0  0
  9 10  4  0  0  0  0
  1 11  4  0  0  0  0
  8 11  1  0  0  0  0
 11 12  4  0  0  0  0
 12 13  4  0  0  0  0
  3 13  4  0  0  0  0
 13 14  1  0  0  0  0
  5 14  4  0  0  0  0
  7 14  4  0  0  0  0
 15 17  4  0  0  0  0
 16 18  4  0  0  0  0
 18 20  4  0  0  0  0
 20 22  4  0  0  0  0
 22 23  4  0  0  0  0
 16 24  4  0  0  0  0
 23 24  4  0  0  0  0
 15 25  4  0  0  0  0
 22 25  1  0  0  0  0
 25 26  4  0  0  0  0
 26 27  4  0  0  0  0
 17 27  4  0  0  0  0
 27 28  1  0  0  0  0
 19 28  4  0  0  0  0
 21 28  4  0  0  0  0
M  END
$$$$
