7FMX
  PyMOL2.5          3D                             0

 14 15  0  0  0  0  0  0  0  0999 V2000
   83.1475   60.1875   12.9640 N   0  0  0  0  0  0  0  0  0  0  0  0
   85.0253   60.7481    8.4414 C   0  0  0  0  0  0  0  0  0  0  0  0
   82.4909   60.5807   14.0202 O   0  0  0  0  0  0  0  0  0  0  0  0
   84.0900   61.7195    8.6261 C   0  0  0  0  0  0  0  0  0  0  0  0
   81.1574   63.6014   15.0467 O   0  0  0  0  0  0  0  0  0  0  0  0
   83.4765   61.8959    9.8500 C   0  0  0  0  0  0  0  0  0  0  0  0
   80.8932   61.5990   15.8699 O   0  5  0  0  0  0  0  0  0  0  0  0
   83.8187   61.0813   10.8872 C   0  0  0  0  0  0  0  0  0  0  0  0
   84.7524   60.1024   10.7133 C   0  0  0  0  0  0  0  0  0  0  0  0
   85.3509   59.9366    9.4907 C   0  0  0  0  0  0  0  0  0  0  0  0
   83.1950   61.2055   12.1398 C   0  0  0  0  0  0  0  0  0  0  0  0
   82.5251   62.3285   12.7223 C   0  0  0  0  0  0  0  0  0  0  0  0
   82.1046   61.8458   13.9122 C   0  0  0  0  0  0  0  0  0  0  0  0
   81.3013   62.4088   15.0652 C   0  0  0  0  0  0  0  0  0  0  0  0
  1  3  4  0  0  0  0
  2  4  4  0  0  0  0
  4  6  4  0  0  0  0
  6  8  4  0  0  0  0
  8  9  4  0  0  0  0
  2 10  4  0  0  0  0
  9 10  4  0  0  0  0
  1 11  4  0  0  0  0
  8 11  1  0  0  0  0
 11 12  4  0  0  0  0
 12 13  4  0  0  0  0
  3 13  4  0  0  0  0
 13 14  1  0  0  0  0
  5 14  4  0  0  0  0
  7 14  4  0  0  0  0
M  END
$$$$
