7FMZ
  PyMOL2.5          3D                             0

 16 17  0  0  0  0  0  0  0  0999 V2000
   27.4423  -16.5311   26.1610 N   0  3  0  0  0  0  0  0  0  0  0  0
   24.9600  -20.5783   26.5001 C   0  0  0  0  0  0  0  0  0  0  0  0
   26.0152  -19.7811   25.9819 O   0  0  0  0  0  0  0  0  0  0  0  0
   26.4573  -18.7282   26.6707 C   0  0  0  0  0  0  0  0  0  0  0  0
   27.8802  -13.8600   26.8976 N   0  0  0  0  0  0  0  0  0  0  0  0
   26.0222  -18.4015   27.7312 O   0  0  0  0  0  0  0  0  0  0  0  0
   27.5727  -18.0279   25.9321 C   0  0  0  0  0  0  0  0  0  0  0  0
   28.5618  -11.4990   27.2101 N   0  0  0  0  0  0  0  0  0  0  0  0
   28.6094  -15.8279   25.5454 C   0  0  0  0  0  0  0  0  0  0  0  0
   28.3159  -14.3325   25.5875 C   0  0  0  0  0  0  0  0  0  0  0  0
   27.0727  -14.7763   27.6756 C   0  0  0  0  0  0  0  0  0  0  0  0
   27.5597  -16.1873   27.5996 C   0  0  0  0  0  0  0  0  0  0  0  0
   27.5982  -12.4155   27.1719 C   0  0  0  0  0  0  0  0  0  0  0  0
   28.0656  -10.3882   27.7576 C   0  0  0  0  0  0  0  0  0  0  0  0
   26.7511  -10.4276   28.0957 C   0  0  0  0  0  0  0  0  0  0  0  0
   26.0717  -11.8845   27.7509 S   0  0  0  0  0  0  0  0  0  0  0  0
  2  3  1  0  0  0  0
  3  4  1  0  0  0  0
  4  7  1  0  0  0  0
  5 10  1  0  0  0  0
  5 11  1  0  0  0  0
  5 13  1  0  0  0  0
  4  6  2  0  0  0  0
  1  7  1  0  0  0  0
  1  9  1  0  0  0  0
  9 10  1  0  0  0  0
 11 12  1  0  0  0  0
  1 12  1  0  0  0  0
  8 13  4  0  0  0  0
 13 16  4  0  0  0  0
  8 14  4  0  0  0  0
 14 15  4  0  0  0  0
 15 16  4  0  0  0  0
M  END
$$$$
