7FN3
  PyMOL2.5          3D                             0

 24 24  0  0  0  0  0  0  0  0999 V2000
  -16.2437  -28.9082    7.0998 C   0  0  0  0  0  0  0  0  0  0  0  0
  -15.9130  -28.7626    7.1983 C   0  0  0  0  0  0  0  0  0  0  0  0
  -13.1283  -30.6035    6.3005 O   0  0  0  0  0  0  0  0  0  0  0  0
  -13.0951  -30.7855    6.2149 O   0  0  0  0  0  0  0  0  0  0  0  0
  -16.9671  -29.9349    7.7136 C   0  0  0  0  0  0  0  0  0  0  0  0
  -16.8055  -29.7134    7.7320 C   0  0  0  0  0  0  0  0  0  0  0  0
  -16.0938  -26.6207    6.2505 O   0  0  0  0  0  0  0  0  0  0  0  0
  -16.4528  -26.5099    8.0549 O   0  0  0  0  0  0  0  0  0  0  0  0
  -16.3863  -31.1864    7.8846 C   0  0  0  0  0  0  0  0  0  0  0  0
  -16.4095  -31.0527    7.8169 C   0  0  0  0  0  0  0  0  0  0  0  0
  -18.1675  -27.2742    6.7246 O   0  0  0  0  0  0  0  0  0  0  0  0
  -16.1300  -26.6214    5.9061 O   0  0  0  0  0  0  0  0  0  0  0  0
  -15.0927  -31.4277    7.4409 C   0  0  0  0  0  0  0  0  0  0  0  0
  -15.1489  -31.4429    7.3551 C   0  0  0  0  0  0  0  0  0  0  0  0
  -14.3784  -30.3884    6.8372 C   0  0  0  0  0  0  0  0  0  0  0  0
  -14.2986  -30.4675    6.8075 C   0  0  0  0  0  0  0  0  0  0  0  0
  -14.9533  -29.1553    6.7068 C   0  0  0  0  0  0  0  0  0  0  0  0
  -14.6919  -29.1773    6.7665 C   0  0  0  0  0  0  0  0  0  0  0  0
  -12.4887  -31.8276    6.5151 C   0  0  0  0  0  0  0  0  0  0  0  0
  -12.3059  -31.8250    6.7153 C   0  0  0  0  0  0  0  0  0  0  0  0
  -11.1317  -31.6527    5.9186 C   0  0  0  0  0  0  0  0  0  0  0  0
  -11.0457  -31.7205    5.9190 C   0  0  0  0  0  0  0  0  0  0  0  0
  -16.8573  -27.5859    6.7181 B   0  0  0  0  0  0  0  0  0  0  0  0
  -16.1853  -27.2888    7.0389 B   0  0  0  0  0  0  0  0  0  0  0  0
  1  5  4  0  0  0  0
  5  9  4  0  0  0  0
  2  6  4  0  0  0  0
  6 10  4  0  0  0  0
  7 23  1  0  0  0  0
  8 24  1  0  0  0  0
 11 23  1  0  0  0  0
 12 24  1  0  0  0  0
  9 13  4  0  0  0  0
 10 14  4  0  0  0  0
  3 15  1  0  0  0  0
 13 15  4  0  0  0  0
  4 16  1  0  0  0  0
 14 16  4  0  0  0  0
  1 17  4  0  0  0  0
 15 17  4  0  0  0  0
  2 18  4  0  0  0  0
 16 18  4  0  0  0  0
  3 19  1  0  0  0  0
  4 20  1  0  0  0  0
 19 21  1  0  0  0  0
 20 22  1  0  0  0  0
  1 23  1  0  0  0  0
  2 24  1  0  0  0  0
M  END
$$$$
