7FN5
  PyMOL2.5          3D                             0

 12 12  0  0  0  0  0  0  0  0999 V2000
   77.9111   -9.5094   28.3090 N   0  0  0  0  0  0  0  0  0  0  0  0
   76.3176  -11.2664   31.3294 C   0  0  0  0  0  0  0  0  0  0  0  0
   78.2625   -7.6330   29.4784 O   0  0  0  0  0  0  0  0  0  0  0  0
   76.4433  -10.3151   30.1425 C   0  0  0  0  0  0  0  0  0  0  0  0
   77.8417  -10.3726   29.5004 C   0  0  0  0  0  0  0  0  0  0  0  0
   78.1377   -8.1553   28.4246 C   0  0  0  0  0  0  0  0  0  0  0  0
   78.1737   -7.3691   27.2147 C   0  0  0  0  0  0  0  0  0  0  0  0
   77.9972   -7.9634   25.9521 C   0  0  0  0  0  0  0  0  0  0  0  0
   77.9093   -6.9310   25.0305 C   0  0  0  0  0  0  0  0  0  0  0  0
   78.2196   -5.9748   27.1325 C   0  0  0  0  0  0  0  0  0  0  0  0
   77.7422   -7.3473   23.2668 Br  0  0  0  0  0  0  0  0  0  0  0  0
   78.0272   -5.3382   25.5698 S   0  0  0  0  0  0  0  0  0  0  0  0
  2  4  1  0  0  0  0
  4  5  1  0  0  0  0
  1  5  1  0  0  0  0
  1  6  1  0  0  0  0
  3  6  2  0  0  0  0
  6  7  1  0  0  0  0
  7  8  4  0  0  0  0
  8  9  4  0  0  0  0
  9 11  1  0  0  0  0
  9 12  4  0  0  0  0
  7 10  4  0  0  0  0
 10 12  4  0  0  0  0
M  END
$$$$
