7FND
  PyMOL2.5          3D                             0

 14 14  0  0  0  0  0  0  0  0999 V2000
   47.5142   13.9064    8.9591 N   0  0  0  0  0  0  0  0  0  0  0  0
   46.3440    9.7851    9.0177 C   0  0  0  0  0  0  0  0  0  0  0  0
   47.5871   11.6988    8.5303 O   0  0  0  0  0  0  0  0  0  0  0  0
   47.7169   10.3914    8.9702 C   0  0  0  0  0  0  0  0  0  0  0  0
   45.8506   14.8012    3.7272 N   0  0  0  0  0  0  0  0  0  0  0  0
   47.9329   12.4431   10.6134 O   0  0  0  0  0  0  0  0  0  0  0  0
   47.6969   12.6579    9.4544 C   0  0  0  0  0  0  0  0  0  0  0  0
   47.3815   14.9678    9.9545 C   0  0  0  0  0  0  0  0  0  0  0  0
   47.1038   14.1234    7.6097 C   0  0  0  0  0  0  0  0  0  0  0  0
   45.7762   13.8968    7.2468 C   0  0  0  0  0  0  0  0  0  0  0  0
   45.3605   14.1069    5.9559 C   0  0  0  0  0  0  0  0  0  0  0  0
   46.2746   14.5577    5.0051 C   0  0  0  0  0  0  0  0  0  0  0  0
   47.6052   14.7811    5.3659 C   0  0  0  0  0  0  0  0  0  0  0  0
   48.0233   14.5646    6.6628 C   0  0  0  0  0  0  0  0  0  0  0  0
  2  4  1  0  0  0  0
  3  4  1  0  0  0  0
  5 12  1  0  0  0  0
  6  7  2  0  0  0  0
  1  7  1  0  0  0  0
  3  7  1  0  0  0  0
  1  8  1  0  0  0  0
  1  9  1  0  0  0  0
  9 10  4  0  0  0  0
 10 11  4  0  0  0  0
 11 12  4  0  0  0  0
 12 13  4  0  0  0  0
 13 14  4  0  0  0  0
  9 14  4  0  0  0  0
M  END
$$$$
