7FNI
  PyMOL2.5          3D                             0

 12 12  0  0  0  0  0  0  0  0999 V2000
   17.0247   -8.3006  -11.3020 N   0  3  0  0  0  0  0  0  0  0  0  0
   10.2723   -5.7664  -11.2257 C   0  0  0  0  0  0  0  0  0  0  0  0
   13.6309   -8.1109  -10.7963 O   0  0  0  0  0  0  0  0  0  0  0  0
   10.6222   -6.2633   -9.9742 C   0  0  0  0  0  0  0  0  0  0  0  0
   15.5135  -10.0947  -11.0123 N   0  0  0  0  0  0  0  0  0  0  0  0
   17.9137   -8.9049  -10.5079 O   0  0  0  0  0  0  0  0  0  0  0  0
   11.7554   -7.0493   -9.8295 C   0  0  0  0  0  0  0  0  0  0  0  0
   12.5127   -7.3178  -10.9603 C   0  0  0  0  0  0  0  0  0  0  0  0
   12.1892   -6.8379  -12.2174 C   0  0  0  0  0  0  0  0  0  0  0  0
   11.0504   -6.0509  -12.3398 C   0  0  0  0  0  0  0  0  0  0  0  0
   14.6233   -7.8921  -11.7634 C   0  0  0  0  0  0  0  0  0  0  0  0
   15.7685   -8.8319  -11.3322 C   0  0  0  0  0  0  0  0  0  0  0  0
  2  4  4  0  0  0  0
  4  7  4  0  0  0  0
  5 12  1  0  0  0  0
  1  6  1  0  0  0  0
  3  8  1  0  0  0  0
  7  8  4  0  0  0  0
  8  9  4  0  0  0  0
  2 10  4  0  0  0  0
  9 10  4  0  0  0  0
  3 11  1  0  0  0  0
  1 12  1  0  0  0  0
 11 12  1  0  0  0  0
M  END
$$$$
