7FNK
  PyMOL2.5          3D                             0

 14 15  0  0  0  0  0  0  0  0999 V2000
    5.2218   38.9952   -3.7328 N   0  0  0  0  0  0  0  0  0  0  0  0
    3.5991   36.5406   -6.6016 C   0  0  0  0  0  0  0  0  0  0  0  0
    3.4147   37.8623   -4.2531 O   0  0  0  0  0  0  0  0  0  0  0  0
    5.0397   36.3163   -7.0016 C   0  0  0  0  0  0  0  0  0  0  0  0
    7.0911   39.8384   -1.8165 N   0  0  0  0  0  0  0  0  0  0  0  0
    6.7494   37.9128   -0.8392 O   0  0  0  0  0  0  0  0  0  0  0  0
    5.7717   37.5314   -6.4192 C   0  0  0  0  0  0  0  0  0  0  0  0
    4.6822   38.5579   -6.1103 C   0  0  0  0  0  0  0  0  0  0  0  0
    3.4684   38.0256   -6.8798 C   0  0  0  0  0  0  0  0  0  0  0  0
    4.3918   38.4293   -4.6628 C   0  0  0  0  0  0  0  0  0  0  0  0
    6.3482   39.8719   -4.0457 C   0  0  0  0  0  0  0  0  0  0  0  0
    6.6099   40.7396   -2.8128 C   0  0  0  0  0  0  0  0  0  0  0  0
    6.3764   38.7604   -1.5843 C   0  0  0  0  0  0  0  0  0  0  0  0
    5.0951   38.6338   -2.3368 C   0  0  0  0  0  0  0  0  0  0  0  0
  1 14  1  0  0  0  0
  2  4  1  0  0  0  0
  4  7  1  0  0  0  0
  5 12  1  0  0  0  0
  5 13  1  0  0  0  0
  7  8  1  0  0  0  0
  2  9  1  0  0  0  0
  8  9  1  0  0  0  0
  1 10  1  0  0  0  0
  3 10  2  0  0  0  0
  8 10  1  0  0  0  0
  1 11  1  0  0  0  0
 11 12  1  0  0  0  0
  6 13  2  0  0  0  0
 13 14  1  0  0  0  0
M  END
$$$$
