7FNS
  PyMOL2.5          3D                             0

 15 16  0  0  0  0  0  0  0  0999 V2000
   81.9381   51.4997   -9.6858 N   0  3  0  0  0  0  0  0  0  0  0  0
   83.8239   48.8095  -12.3541 C   0  0  0  0  0  0  0  0  0  0  0  0
   83.0223   48.0822  -10.3795 O   0  0  0  0  0  0  0  0  0  0  0  0
   83.7284   47.7513  -11.4979 C   0  0  0  0  0  0  0  0  0  0  0  0
   83.5373   51.3955  -13.4946 O   0  0  0  0  0  0  0  0  0  0  0  0
   82.6759   49.3827  -10.5342 C   0  0  0  0  0  0  0  0  0  0  0  0
   82.3840   52.1207  -11.7833 O   0  5  0  0  0  0  0  0  0  0  0  0
   83.1352   49.8791  -11.7343 C   0  0  0  0  0  0  0  0  0  0  0  0
   81.8492   52.4034   -7.0241 O   0  0  0  0  0  0  0  0  0  0  0  0
   82.9969   51.2293  -12.3528 C   0  0  0  0  0  0  0  0  0  0  0  0
   81.9410   49.9873   -9.4249 C   0  0  0  0  0  0  0  0  0  0  0  0
   83.1350   52.1251   -9.0124 C   0  0  0  0  0  0  0  0  0  0  0  0
   83.0108   51.8120   -7.5139 C   0  0  0  0  0  0  0  0  0  0  0  0
   80.6967   51.8807   -7.5921 C   0  0  0  0  0  0  0  0  0  0  0  0
   80.6914   52.1400   -9.1053 C   0  0  0  0  0  0  0  0  0  0  0  0
  2  4  4  0  0  0  0
  3  4  4  0  0  0  0
  5 10  4  0  0  0  0
  3  6  4  0  0  0  0
  2  8  4  0  0  0  0
  6  8  4  0  0  0  0
  7 10  4  0  0  0  0
  8 10  1  0  0  0  0
  1 11  1  0  0  0  0
  6 11  1  0  0  0  0
  1 12  1  0  0  0  0
  9 13  1  0  0  0  0
 12 13  1  0  0  0  0
  9 14  1  0  0  0  0
 14 15  1  0  0  0  0
  1 15  1  0  0  0  0
M  END
$$$$
