7FNV
  PyMOL2.5          3D                             0

 13 13  0  0  0  0  0  0  0  0999 V2000
   20.2410    7.2054   -4.8152 N   0  0  0  0  0  0  0  0  0  0  0  0
   20.4913    8.4514   -6.8962 C   0  0  0  0  0  0  0  0  0  0  0  0
   18.4769    7.3177   -6.2480 O   0  0  0  0  0  0  0  0  0  0  0  0
   19.6239    7.6162   -5.9896 C   0  0  0  0  0  0  0  0  0  0  0  0
   18.0226    4.1046   -0.6863 N   0  3  0  0  0  0  0  0  0  0  0  0
   16.8539    3.8504   -0.6855 O   0  0  0  0  0  0  0  0  0  0  0  0
   19.6391    6.4262   -3.8247 C   0  0  0  0  0  0  0  0  0  0  0  0
   18.7653    3.7340    0.1767 O   0  5  0  0  0  0  0  0  0  0  0  0
   20.4583    5.9500   -2.7941 C   0  0  0  0  0  0  0  0  0  0  0  0
   19.9302    5.1918   -1.7831 C   0  0  0  0  0  0  0  0  0  0  0  0
   18.5769    4.9055   -1.7930 C   0  0  0  0  0  0  0  0  0  0  0  0
   17.7461    5.3572   -2.8030 C   0  0  0  0  0  0  0  0  0  0  0  0
   18.2776    6.1241   -3.8297 C   0  0  0  0  0  0  0  0  0  0  0  0
  1  4  1  0  0  0  0
  2  4  1  0  0  0  0
  3  4  2  0  0  0  0
  5  6  4  0  0  0  0
  5  8  4  0  0  0  0
  5 11  1  0  0  0  0
  1  7  1  0  0  0  0
  7  9  4  0  0  0  0
  9 10  4  0  0  0  0
 10 11  4  0  0  0  0
 11 12  4  0  0  0  0
  7 13  4  0  0  0  0
 12 13  4  0  0  0  0
M  END
$$$$
