7FNZ
  PyMOL2.5          3D                             0

 16 16  0  0  0  0  0  0  0  0999 V2000
   19.8353   -7.6511  -28.8123 N   0  0  0  0  0  0  0  0  0  0  0  0
   19.8877  -10.0017  -28.6073 C   0  0  0  0  0  0  0  0  0  0  0  0
   18.5231   -6.4901  -30.2923 O   0  0  0  0  0  0  0  0  0  0  0  0
   19.2705  -11.2099  -28.4996 C   0  0  0  0  0  0  0  0  0  0  0  0
   22.1669   -2.4405  -33.1227 N   0  0  0  0  0  0  0  0  0  0  0  0
   21.1887   -4.3573  -33.8844 O   0  0  0  0  0  0  0  0  0  0  0  0
   17.8899  -11.2666  -28.5076 C   0  0  0  0  0  0  0  0  0  0  0  0
   17.1178  -10.1400  -28.6285 C   0  0  0  0  0  0  0  0  0  0  0  0
   17.7386   -8.9287  -28.7501 C   0  0  0  0  0  0  0  0  0  0  0  0
   19.1292   -8.8632  -28.7327 C   0  0  0  0  0  0  0  0  0  0  0  0
   19.5114   -6.5521  -29.5871 C   0  0  0  0  0  0  0  0  0  0  0  0
   20.5033   -5.4126  -29.4557 C   0  0  0  0  0  0  0  0  0  0  0  0
   21.9086   -4.3585  -31.6027 C   0  0  0  0  0  0  0  0  0  0  0  0
   21.7237   -3.7412  -32.9628 C   0  0  0  0  0  0  0  0  0  0  0  0
   17.3073  -12.4316  -28.4183 F   0  0  0  0  0  0  0  0  0  0  0  0
   20.3505   -4.1430  -30.7370 S   0  0  0  0  0  0  0  0  0  0  0  0
  2  4  4  0  0  0  0
  4  7  4  0  0  0  0
  5 14  1  0  0  0  0
  7 15  1  0  0  0  0
  7  8  4  0  0  0  0
  8  9  4  0  0  0  0
  1 10  1  0  0  0  0
  2 10  4  0  0  0  0
  9 10  4  0  0  0  0
  1 11  1  0  0  0  0
  3 11  2  0  0  0  0
 11 12  1  0  0  0  0
 12 16  1  0  0  0  0
 13 14  1  0  0  0  0
 13 16  1  0  0  0  0
  6 14  2  0  0  0  0
M  END
$$$$
