7FO0
  PyMOL2.5          3D                             0

 16 16  0  0  0  0  0  0  0  0999 V2000
   12.2168   33.7731    7.6963 N   0  0  0  0  0  0  0  0  0  0  0  0
   15.0480   33.8924   10.3349 C   0  0  0  0  0  0  0  0  0  0  0  0
   15.1372   33.9332    8.9418 O   0  0  0  0  0  0  0  0  0  0  0  0
   14.3411   34.9012    8.3578 C   0  0  0  0  0  0  0  0  0  0  0  0
   10.3906   33.4179    6.4706 O   0  0  0  0  0  0  0  0  0  0  0  0
   12.9191   34.5110    8.7494 C   0  0  0  0  0  0  0  0  0  0  0  0
    9.7867   35.9470    6.7551 O   0  0  0  0  0  0  0  0  0  0  0  0
   10.9145   34.0465    7.3076 C   0  0  0  0  0  0  0  0  0  0  0  0
   10.0613   35.1566    7.8856 C   0  0  0  0  0  0  0  0  0  0  0  0
    8.6799   36.6429    6.7449 C   0  0  0  0  0  0  0  0  0  0  0  0
    8.7891   37.9726    6.6830 C   0  0  0  0  0  0  0  0  0  0  0  0
    7.6707   38.7030    6.5327 C   0  0  0  0  0  0  0  0  0  0  0  0
    6.4729   38.0544    6.4603 C   0  0  0  0  0  0  0  0  0  0  0  0
    6.3608   36.7063    6.5724 C   0  0  0  0  0  0  0  0  0  0  0  0
    7.4753   35.9766    6.7140 C   0  0  0  0  0  0  0  0  0  0  0  0
    5.4260   38.7281    6.2159 F   0  0  0  0  0  0  0  0  0  0  0  0
  2  3  1  0  0  0  0
  3  4  1  0  0  0  0
  4  6  1  0  0  0  0
  5  8  2  0  0  0  0
  1  6  1  0  0  0  0
  1  8  1  0  0  0  0
  7  9  1  0  0  0  0
  8  9  1  0  0  0  0
  7 10  1  0  0  0  0
 10 11  4  0  0  0  0
 10 15  4  0  0  0  0
 11 12  4  0  0  0  0
 12 13  4  0  0  0  0
 13 14  4  0  0  0  0
 13 16  1  0  0  0  0
 14 15  4  0  0  0  0
M  END
$$$$
