7FO6
  PyMOL2.5          3D                             0

 30 32  0  0  0  0  0  0  0  0999 V2000
   39.8874    0.5796   -7.5450 N   0  0  0  0  0  0  0  0  0  0  0  0
   41.9084   -0.9592  -10.3581 C   0  0  0  0  0  0  0  0  0  0  0  0
   39.6160   -0.7209  -10.0373 O   0  0  0  0  0  0  0  0  0  0  0  0
   40.7993   -0.8674   -9.3189 C   0  0  0  0  0  0  0  0  0  0  0  0
   39.0778    1.4497   -5.6449 O   0  0  0  0  0  0  0  0  0  0  0  0
   41.0277    0.3819   -8.4348 C   0  0  0  0  0  0  0  0  0  0  0  0
   38.6062    0.5932   -8.2553 C   0  0  0  0  0  0  0  0  0  0  0  0
   38.5017   -0.6309   -9.2084 C   0  0  0  0  0  0  0  0  0  0  0  0
   40.0188    0.9811   -6.2329 C   0  0  0  0  0  0  0  0  0  0  0  0
   41.3699    0.8169   -5.5629 C   0  0  0  0  0  0  0  0  0  0  0  0
   41.4198    1.5093   -4.2534 C   0  0  0  0  0  0  0  0  0  0  0  0
   40.7086    1.0256   -3.1011 C   0  0  0  0  0  0  0  0  0  0  0  0
   40.9230    1.8022   -2.0158 C   0  0  0  0  0  0  0  0  0  0  0  0
   42.1254    2.6239   -3.9691 C   0  0  0  0  0  0  0  0  0  0  0  0
   41.9550    3.0965   -2.3500 S   0  0  0  0  0  0  0  0  0  0  0  0
  -25.4114  -32.0518  -30.4210 N   0  0  0  0  0  0  0  0  0  0  0  0
  -24.2267  -32.0206  -33.9295 C   0  0  0  0  0  0  0  0  0  0  0  0
  -26.1048  -32.9806  -32.8978 O   0  0  0  0  0  0  0  0  0  0  0  0
  -24.8204  -32.5661  -32.6598 C   0  0  0  0  0  0  0  0  0  0  0  0
  -25.9668  -31.7682  -28.3433 O   0  0  0  0  0  0  0  0  0  0  0  0
  -24.9105  -31.4579  -31.6547 C   0  0  0  0  0  0  0  0  0  0  0  0
  -26.5094  -33.0468  -30.5840 C   0  0  0  0  0  0  0  0  0  0  0  0
  -26.4985  -33.8151  -31.8879 C   0  0  0  0  0  0  0  0  0  0  0  0
  -25.4232  -31.2943  -29.2843 C   0  0  0  0  0  0  0  0  0  0  0  0
  -24.7602  -29.9107  -29.2095 C   0  0  0  0  0  0  0  0  0  0  0  0
  -25.5654  -28.8213  -29.8558 C   0  0  0  0  0  0  0  0  0  0  0  0
  -26.6457  -28.2006  -29.2485 C   0  0  0  0  0  0  0  0  0  0  0  0
  -27.1776  -27.3026  -30.0507 C   0  0  0  0  0  0  0  0  0  0  0  0
  -25.3282  -28.3623  -31.0669 C   0  0  0  0  0  0  0  0  0  0  0  0
  -26.3968  -27.1913  -31.5053 S   0  0  0  0  0  0  0  0  0  0  0  0
  2  4  1  0  0  0  0
  3  4  1  0  0  0  0
  4  6  1  0  0  0  0
  5  9  2  0  0  0  0
  1  6  1  0  0  0  0
  1  7  1  0  0  0  0
  3  8  1  0  0  0  0
  7  8  1  0  0  0  0
  1  9  1  0  0  0  0
  9 10  1  0  0  0  0
 10 11  1  0  0  0  0
 11 12  4  0  0  0  0
 11 14  4  0  0  0  0
 12 13  4  0  0  0  0
 13 15  4  0  0  0  0
 14 15  4  0  0  0  0
 17 19  1  0  0  0  0
 18 19  1  0  0  0  0
 19 21  1  0  0  0  0
 20 24  2  0  0  0  0
 16 21  1  0  0  0  0
 16 22  1  0  0  0  0
 18 23  1  0  0  0  0
 22 23  1  0  0  0  0
 16 24  1  0  0  0  0
 24 25  1  0  0  0  0
 25 26  1  0  0  0  0
 26 27  4  0  0  0  0
 26 29  4  0  0  0  0
 27 28  4  0  0  0  0
 28 30  4  0  0  0  0
 29 30  4  0  0  0  0
M  END
$$$$
