7FOC
  PyMOL2.5          3D                             0

 13 14  0  0  0  0  0  0  0  0999 V2000
   -8.3204   33.1230  -46.8774 C   0  0  0  0  0  0  0  0  0  0  0  0
   -4.8134   33.6833  -45.3831 O   0  0  0  0  0  0  0  0  0  0  0  0
   -8.0960   34.0202  -45.9529 C   0  0  0  0  0  0  0  0  0  0  0  0
   -1.3805   33.0284  -47.0977 O   0  0  0  0  0  0  0  0  0  0  0  0
   -6.8779   34.1514  -45.4513 C   0  0  0  0  0  0  0  0  0  0  0  0
   -2.1527   31.6530  -48.4229 O   0  5  0  0  0  0  0  0  0  0  0  0
   -5.8945   33.4284  -45.8923 C   0  0  0  0  0  0  0  0  0  0  0  0
   -6.0074   32.5073  -46.8064 C   0  0  0  0  0  0  0  0  0  0  0  0
   -7.2564   32.3256  -47.3017 C   0  0  0  0  0  0  0  0  0  0  0  0
   -4.8056   31.9676  -47.3697 C   0  0  0  0  0  0  0  0  0  0  0  0
   -3.6712   32.6293  -47.0458 C   0  0  0  0  0  0  0  0  0  0  0  0
   -3.7555   33.7304  -46.2008 C   0  0  0  0  0  0  0  0  0  0  0  0
   -2.2788   32.4245  -47.5792 C   0  0  0  0  0  0  0  0  0  0  0  0
  1  3  4  0  0  0  0
  3  5  4  0  0  0  0
  2  7  1  0  0  0  0
  5  7  4  0  0  0  0
  7  8  4  0  0  0  0
  1  9  4  0  0  0  0
  8  9  4  0  0  0  0
  8 10  1  0  0  0  0
 10 11  1  0  0  0  0
 11 12  1  0  0  0  0
 11 13  1  0  0  0  0
  2 12  1  0  0  0  0
  4 13  4  0  0  0  0
  6 13  4  0  0  0  0
M  END
$$$$
