7FOZ
  PyMOL2.5          3D                             0

 16 18  0  0  0  0  0  0  0  0999 V2000
   25.8171    3.9396  -19.8062 N   0  0  0  0  0  0  0  0  0  0  0  0
   24.7009    2.9353  -23.1987 C   0  0  0  0  0  0  0  0  0  0  0  0
   25.3570    3.9251  -22.4462 O   0  0  0  0  0  0  0  0  0  0  0  0
   26.6308    3.5805  -22.0396 C   0  0  0  0  0  0  0  0  0  0  0  0
   21.4025    2.1964  -15.8526 N   0  0  0  0  0  0  0  0  0  0  0  0
   24.3427    5.5429  -19.9101 O   0  0  0  0  0  0  0  0  0  0  0  0
   26.8123    4.3570  -20.7476 C   0  0  0  0  0  0  0  0  0  0  0  0
   24.6408    4.5469  -19.4956 C   0  0  0  0  0  0  0  0  0  0  0  0
   23.7988    3.8778  -18.5055 C   0  0  0  0  0  0  0  0  0  0  0  0
   22.9719    4.6620  -17.7068 C   0  0  0  0  0  0  0  0  0  0  0  0
   22.2496    4.0559  -16.7572 C   0  0  0  0  0  0  0  0  0  0  0  0
   22.2611    2.7821  -16.6426 C   0  0  0  0  0  0  0  0  0  0  0  0
   22.9871    1.9841  -17.3894 C   0  0  0  0  0  0  0  0  0  0  0  0
   23.8032    2.4985  -18.3155 C   0  0  0  0  0  0  0  0  0  0  0  0
   21.4767    1.0412  -16.0394 C   0  0  0  0  0  0  0  0  0  0  0  0
   22.5567    0.4712  -17.1063 S   0  0  0  0  0  0  0  0  0  0  0  0
  2  3  1  0  0  0  0
  3  4  1  0  0  0  0
  4  7  1  0  0  0  0
  5 12  4  0  0  0  0
  5 15  4  0  0  0  0
  6  8  2  0  0  0  0
  1  7  1  0  0  0  0
  1  8  1  0  0  0  0
  8  9  1  0  0  0  0
  9 10  4  0  0  0  0
 10 11  4  0  0  0  0
 11 12  4  0  0  0  0
 12 13  4  0  0  0  0
 12 15  1  0  0  0  0
 13 14  4  0  0  0  0
 13 16  4  0  0  0  0
  9 14  4  0  0  0  0
 15 16  4  0  0  0  0
M  END
$$$$
