7FP2
  PyMOL2.5          3D                             0

 28 28  0  0  0  0  0  0  0  0999 V2000
    7.7196   30.4850   -7.2266 N   0  3  0  0  0  0  0  0  0  0  0  0
    7.0322   31.7617   -6.7408 C   0  0  0  0  0  0  0  0  0  0  0  0
    6.1986   27.8158   -5.2005 O   0  0  0  0  0  0  0  0  0  0  0  0
    9.4424   32.9237   -5.6349 Cl  0  0  0  0  0  0  0  0  0  0  0  0
    7.6901   29.4629   -6.0993 C   0  0  0  0  0  0  0  0  0  0  0  0
   13.0361   28.3250   -6.1209 N   0  0  0  0  0  0  0  0  0  0  0  0
    6.2259   28.9801   -5.9642 C   0  0  0  0  0  0  0  0  0  0  0  0
    9.1475   30.7839   -7.8384 C   0  0  0  0  0  0  0  0  0  0  0  0
   10.2581   30.6323   -6.8479 C   0  0  0  0  0  0  0  0  0  0  0  0
   11.1015   29.5414   -6.9508 C   0  0  0  0  0  0  0  0  0  0  0  0
   12.1885   29.4003   -6.0474 C   0  0  0  0  0  0  0  0  0  0  0  0
   12.4013   30.3654   -5.0701 C   0  0  0  0  0  0  0  0  0  0  0  0
   11.5501   31.4408   -4.9778 C   0  0  0  0  0  0  0  0  0  0  0  0
   10.4849   31.5686   -5.8538 C   0  0  0  0  0  0  0  0  0  0  0  0
   88.9599    9.8064  -18.3519 N   0  3  0  0  0  0  0  0  0  0  0  0
   89.5715   11.1903  -18.2910 C   0  0  0  0  0  0  0  0  0  0  0  0
   91.7409    8.8494  -20.4976 O   0  0  0  0  0  0  0  0  0  0  0  0
   86.8033   10.0702  -16.2286 Cl  0  0  0  0  0  0  0  0  0  0  0  0
   90.0226    8.8592  -18.8475 C   0  0  0  0  0  0  0  0  0  0  0  0
   85.1230    5.7037  -19.7000 N   0  0  0  0  0  0  0  0  0  0  0  0
   90.4398    9.2830  -20.2579 C   0  0  0  0  0  0  0  0  0  0  0  0
   87.7105    9.8071  -19.2669 C   0  0  0  0  0  0  0  0  0  0  0  0
   86.7565    8.8049  -18.7019 C   0  0  0  0  0  0  0  0  0  0  0  0
   86.2972    7.7832  -19.5266 C   0  0  0  0  0  0  0  0  0  0  0  0
   85.5392    6.7264  -18.9210 C   0  0  0  0  0  0  0  0  0  0  0  0
   85.2512    6.7513  -17.5301 C   0  0  0  0  0  0  0  0  0  0  0  0
   85.6716    7.7790  -16.7653 C   0  0  0  0  0  0  0  0  0  0  0  0
   86.4017    8.7981  -17.3219 C   0  0  0  0  0  0  0  0  0  0  0  0
  1  2  1  0  0  0  0
  1  5  1  0  0  0  0
  5  7  1  0  0  0  0
  6 11  1  0  0  0  0
  3  7  1  0  0  0  0
  1  8  1  0  0  0  0
  8  9  1  0  0  0  0
  9 10  4  0  0  0  0
 10 11  4  0  0  0  0
 11 12  4  0  0  0  0
 12 13  4  0  0  0  0
 13 14  4  0  0  0  0
  4 14  1  0  0  0  0
  9 14  4  0  0  0  0
 15 16  1  0  0  0  0
 15 19  1  0  0  0  0
 19 21  1  0  0  0  0
 20 25  1  0  0  0  0
 17 21  1  0  0  0  0
 15 22  1  0  0  0  0
 22 23  1  0  0  0  0
 23 24  4  0  0  0  0
 24 25  4  0  0  0  0
 25 26  4  0  0  0  0
 26 27  4  0  0  0  0
 27 28  4  0  0  0  0
 18 28  1  0  0  0  0
 23 28  4  0  0  0  0
M  END
$$$$
