7FP8
  PyMOL2.5          3D                             0

 45 45  0  0  0  0  0  0  0  0999 V2000
   -2.7999   57.9016   13.7667 N   0  3  0  0  0  0  0  0  0  0  0  0
   -4.0195   58.6369   13.3226 C   0  0  0  0  0  0  0  0  0  0  0  0
   -0.6835   60.7456   14.0576 O   0  0  0  0  0  0  0  0  0  0  0  0
   -1.6101   58.1821   12.8368 C   0  0  0  0  0  0  0  0  0  0  0  0
    0.5527   60.8221   12.1302 N   0  0  0  0  0  0  0  0  0  0  0  0
   -1.5949   59.5397   12.1365 C   0  0  0  0  0  0  0  0  0  0  0  0
   -0.5410   60.4199   12.8580 C   0  0  0  0  0  0  0  0  0  0  0  0
   -3.1770   56.3827   13.8334 C   0  0  0  0  0  0  0  0  0  0  0  0
   -2.0387   55.6214   13.2858 C   0  0  0  0  0  0  0  0  0  0  0  0
   -1.1478   55.0896   14.1607 C   0  0  0  0  0  0  0  0  0  0  0  0
   -0.0443   54.4352   13.6795 C   0  0  0  0  0  0  0  0  0  0  0  0
    0.1677   54.3093   12.3465 C   0  0  0  0  0  0  0  0  0  0  0  0
   -0.7270   54.8398   11.4436 C   0  0  0  0  0  0  0  0  0  0  0  0
   -1.7994   55.4763   11.9242 C   0  0  0  0  0  0  0  0  0  0  0  0
   -2.9772   56.1823   10.5510 Br  0  0  0  0  0  0  0  0  0  0  0  0
   43.5461   -6.0509   14.4253 N   0  3  0  0  0  0  0  0  0  0  0  0
   44.7522   -6.5981   15.1244 C   0  0  0  0  0  0  0  0  0  0  0  0
   45.4910   -2.3955   12.5634 O   0  0  0  0  0  0  0  0  0  0  0  0
   43.8634   -4.7141   13.7383 C   0  0  0  0  0  0  0  0  0  0  0  0
   46.7657   -4.1582   12.0445 N   0  0  0  0  0  0  0  0  0  0  0  0
   45.2862   -4.2530   14.0379 C   0  0  0  0  0  0  0  0  0  0  0  0
   45.8462   -3.5220   12.8217 C   0  0  0  0  0  0  0  0  0  0  0  0
   42.3806   -5.9794   15.4050 C   0  0  0  0  0  0  0  0  0  0  0  0
   42.8827   -5.7306   16.7646 C   0  0  0  0  0  0  0  0  0  0  0  0
   42.9553   -4.4720   17.2781 C   0  0  0  0  0  0  0  0  0  0  0  0
   43.3793   -4.2953   18.5553 C   0  0  0  0  0  0  0  0  0  0  0  0
   43.7733   -5.3732   19.3135 C   0  0  0  0  0  0  0  0  0  0  0  0
   43.7241   -6.6356   18.8126 C   0  0  0  0  0  0  0  0  0  0  0  0
   43.2419   -6.7790   17.5402 C   0  0  0  0  0  0  0  0  0  0  0  0
   42.8898   -8.5454   16.8576 Br  0  0  0  0  0  0  0  0  0  0  0  0
   38.2723  -10.6737   38.9849 N   0  3  0  0  0  0  0  0  0  0  0  0
   37.2521  -11.6113   38.4737 C   0  0  0  0  0  0  0  0  0  0  0  0
   38.3899  -13.0352   43.2753 O   0  0  0  0  0  0  0  0  0  0  0  0
   38.3191  -10.6306   40.5359 C   0  0  0  0  0  0  0  0  0  0  0  0
   38.7921  -10.8691   43.4727 N   0  0  0  0  0  0  0  0  0  0  0  0
   38.9205  -11.9132   41.1873 C   0  0  0  0  0  0  0  0  0  0  0  0
   38.6784  -11.9783   42.7301 C   0  0  0  0  0  0  0  0  0  0  0  0
   37.9272   -9.3384   38.3424 C   0  0  0  0  0  0  0  0  0  0  0  0
   39.1349   -8.4142   38.0568 C   0  0  0  0  0  0  0  0  0  0  0  0
   39.5755   -7.7170   39.1394 C   0  0  0  0  0  0  0  0  0  0  0  0
   40.8676   -7.2983   39.1744 C   0  0  0  0  0  0  0  0  0  0  0  0
   41.6892   -7.5698   38.1119 C   0  0  0  0  0  0  0  0  0  0  0  0
   41.2349   -8.2096   36.9894 C   0  0  0  0  0  0  0  0  0  0  0  0
   39.9514   -8.6110   36.9585 C   0  0  0  0  0  0  0  0  0  0  0  0
   39.3893   -9.4526   35.3601 Br  0  0  0  0  0  0  0  0  0  0  0  0
  1  2  1  0  0  0  0
  1  4  1  0  0  0  0
  4  6  1  0  0  0  0
  5  7  1  0  0  0  0
  3  7  2  0  0  0  0
  6  7  1  0  0  0  0
  1  8  1  0  0  0  0
  8  9  1  0  0  0  0
  9 10  4  0  0  0  0
  9 14  4  0  0  0  0
 10 11  4  0  0  0  0
 11 12  4  0  0  0  0
 12 13  4  0  0  0  0
 13 14  4  0  0  0  0
 14 15  1  0  0  0  0
 16 17  1  0  0  0  0
 16 19  1  0  0  0  0
 19 21  1  0  0  0  0
 20 22  1  0  0  0  0
 18 22  2  0  0  0  0
 21 22  1  0  0  0  0
 16 23  1  0  0  0  0
 23 24  1  0  0  0  0
 24 25  4  0  0  0  0
 24 29  4  0  0  0  0
 25 26  4  0  0  0  0
 26 27  4  0  0  0  0
 27 28  4  0  0  0  0
 28 29  4  0  0  0  0
 29 30  1  0  0  0  0
 31 32  1  0  0  0  0
 31 34  1  0  0  0  0
 34 36  1  0  0  0  0
 35 37  1  0  0  0  0
 33 37  2  0  0  0  0
 36 37  1  0  0  0  0
 31 38  1  0  0  0  0
 38 39  1  0  0  0  0
 39 40  1  0  0  0  0
 39 44  1  0  0  0  0
 40 41  1  0  0  0  0
 41 42  1  0  0  0  0
 42 43  1  0  0  0  0
 43 44  1  0  0  0  0
 44 45  1  0  0  0  0
M  END
$$$$
