7FPD
  PyMOL2.5          3D                             0

 15 16  0  0  0  0  0  0  0  0999 V2000
   53.9287    1.8515  -16.1838 N   0  0  0  0  0  0  0  0  0  0  0  0
   54.8891   -0.3671  -16.5372 C   0  0  0  0  0  0  0  0  0  0  0  0
   55.7021    1.6128  -17.5192 O   0  0  0  0  0  0  0  0  0  0  0  0
   54.8937    1.1098  -16.8044 C   0  0  0  0  0  0  0  0  0  0  0  0
   51.3256    1.1686  -16.9753 O   0  0  0  0  0  0  0  0  0  0  0  0
   53.7374    3.2223  -16.2975 C   0  0  0  0  0  0  0  0  0  0  0  0
   54.6554    3.9370  -15.3348 C   0  0  0  0  0  0  0  0  0  0  0  0
   54.4939    3.6643  -13.8799 C   0  0  0  0  0  0  0  0  0  0  0  0
   54.6070    2.2439  -13.5776 C   0  0  0  0  0  0  0  0  0  0  0  0
   53.3413    1.5519  -13.8828 C   0  0  0  0  0  0  0  0  0  0  0  0
   53.1020    1.1600  -15.3432 C   0  0  0  0  0  0  0  0  0  0  0  0
   51.6846    1.4017  -15.7538 C   0  0  0  0  0  0  0  0  0  0  0  0
   50.6655    1.8058  -15.1172 C   0  0  0  0  0  0  0  0  0  0  0  0
   49.6151    1.8222  -16.0410 C   0  0  0  0  0  0  0  0  0  0  0  0
   50.0816    1.4406  -17.1348 C   0  0  0  0  0  0  0  0  0  0  0  0
  1  4  1  0  0  0  0
  2  4  1  0  0  0  0
  3  4  2  0  0  0  0
  5 15  4  0  0  0  0
  1  6  1  0  0  0  0
  6  7  1  0  0  0  0
  7  8  1  0  0  0  0
  8  9  1  0  0  0  0
  9 10  1  0  0  0  0
  1 11  1  0  0  0  0
 10 11  1  0  0  0  0
 11 12  1  0  0  0  0
  5 12  4  0  0  0  0
 12 13  4  0  0  0  0
 13 14  4  0  0  0  0
 14 15  4  0  0  0  0
M  END
$$$$
