7FPH
  PyMOL2.5          3D                             0

 14 14  0  0  0  0  0  0  0  0999 V2000
   40.2934   28.2000   28.5645 C   0  0  0  0  0  0  0  0  0  0  0  0
   39.6222   27.0816   28.1632 O   0  0  0  0  0  0  0  0  0  0  0  0
   39.7566   26.1438   29.0942 C   0  0  0  0  0  0  0  0  0  0  0  0
   41.6836   25.4599   28.0619 O   0  0  0  0  0  0  0  0  0  0  0  0
   38.7779   26.0273   30.0584 C   0  0  0  0  0  0  0  0  0  0  0  0
   42.0332   23.6155   30.0485 O   0  0  0  0  0  0  0  0  0  0  0  0
   38.9013   25.1019   31.0206 C   0  0  0  0  0  0  0  0  0  0  0  0
   39.6980   23.8680   33.2674 O   0  0  0  0  0  0  0  0  0  0  0  0
   40.0055   24.2895   31.0245 C   0  0  0  0  0  0  0  0  0  0  0  0
   40.9586   24.4226   30.0437 C   0  0  0  0  0  0  0  0  0  0  0  0
   40.8207   25.3552   29.0709 C   0  0  0  0  0  0  0  0  0  0  0  0
   42.5203   26.4473   28.3178 C   0  0  0  0  0  0  0  0  0  0  0  0
   43.1993   24.2624   30.2468 C   0  0  0  0  0  0  0  0  0  0  0  0
   40.1297   23.3523   32.1357 C   0  0  0  0  0  0  0  0  0  0  0  0
  1  2  1  0  0  0  0
  2  3  1  0  0  0  0
  3  5  4  0  0  0  0
  3 11  4  0  0  0  0
  4 11  1  0  0  0  0
  5  7  4  0  0  0  0
  7  9  4  0  0  0  0
  6 10  1  0  0  0  0
  9 10  4  0  0  0  0
 10 11  4  0  0  0  0
  4 12  1  0  0  0  0
  6 13  1  0  0  0  0
  8 14  1  0  0  0  0
  9 14  1  0  0  0  0
M  END
$$$$
