7FPI
  PyMOL2.5          3D                             0

 13 14  0  0  0  0  0  0  0  0999 V2000
   27.3271  -23.3231   -2.8633 N   0  0  0  0  0  0  0  0  0  0  0  0
   28.3875  -26.7856   -2.8496 C   0  0  0  0  0  0  0  0  0  0  0  0
   28.4523  -22.3516   -1.1989 O   0  0  0  0  0  0  0  0  0  0  0  0
   28.4240  -25.4996   -2.6003 C   0  0  0  0  0  0  0  0  0  0  0  0
   26.3015  -21.6610   -1.5228 N   0  0  0  0  0  0  0  0  0  0  0  0
   27.1652  -24.7230   -2.5108 C   0  0  0  0  0  0  0  0  0  0  0  0
   27.0051  -22.8919   -4.1983 C   0  0  0  0  0  0  0  0  0  0  0  0
   26.1923  -23.7351   -5.1570 C   0  0  0  0  0  0  0  0  0  0  0  0
   25.6004  -22.4808   -4.6079 C   0  0  0  0  0  0  0  0  0  0  0  0
   27.4174  -22.4322   -1.8235 C   0  0  0  0  0  0  0  0  0  0  0  0
   26.3961  -20.7280   -0.4466 C   0  0  0  0  0  0  0  0  0  0  0  0
   25.2356  -20.5482    0.5250 C   0  0  0  0  0  0  0  0  0  0  0  0
   25.5529  -19.4748   -0.4740 C   0  0  0  0  0  0  0  0  0  0  0  0
  2  4  1  0  0  0  0
  4  6  1  0  0  0  0
  5 10  1  0  0  0  0
  5 11  1  0  0  0  0
  1  6  1  0  0  0  0
  1  7  1  0  0  0  0
  7  8  1  0  0  0  0
  7  9  1  0  0  0  0
  8  9  1  0  0  0  0
  1 10  1  0  0  0  0
  3 10  2  0  0  0  0
 11 12  1  0  0  0  0
 11 13  1  0  0  0  0
 12 13  1  0  0  0  0
M  END
$$$$
