7FPJ
  PyMOL2.5          3D                             0

 14 15  0  0  0  0  0  0  0  0999 V2000
  -26.3895  -22.4393   -2.6455 N   0  0  0  0  0  0  0  0  0  0  0  0
  -21.6351  -21.9150   -3.2097 C   0  0  0  0  0  0  0  0  0  0  0  0
  -22.5275  -21.8026   -2.2532 C   0  0  0  0  0  0  0  0  0  0  0  0
  -27.2928  -23.0623   -0.7749 N   0  0  0  0  0  0  0  0  0  0  0  0
  -23.8257  -21.8687   -2.5123 C   0  0  0  0  0  0  0  0  0  0  0  0
  -26.4423  -25.1610   -3.4993 N   0  3  0  0  0  0  0  0  0  0  0  0
  -24.2481  -22.0598   -3.6907 C   0  0  0  0  0  0  0  0  0  0  0  0
  -23.4086  -22.1402   -4.7052 C   0  0  0  0  0  0  0  0  0  0  0  0
  -22.0502  -22.0664   -4.4364 C   0  0  0  0  0  0  0  0  0  0  0  0
  -25.6884  -22.3989   -3.8653 C   0  0  0  0  0  0  0  0  0  0  0  0
  -26.8878  -21.3820   -2.0813 C   0  0  0  0  0  0  0  0  0  0  0  0
  -27.4420  -21.7697   -0.9360 C   0  0  0  0  0  0  0  0  0  0  0  0
  -26.6635  -23.4768   -1.8260 C   0  0  0  0  0  0  0  0  0  0  0  0
  -26.4050  -24.8763   -2.0019 C   0  0  0  0  0  0  0  0  0  0  0  0
  2  3  4  0  0  0  0
  3  5  4  0  0  0  0
  4 12  4  0  0  0  0
  4 13  4  0  0  0  0
  6 14  1  0  0  0  0
  5  7  4  0  0  0  0
  7  8  4  0  0  0  0
  2  9  4  0  0  0  0
  8  9  4  0  0  0  0
  1 10  1  0  0  0  0
  7 10  1  0  0  0  0
  1 11  4  0  0  0  0
 11 12  4  0  0  0  0
  1 13  4  0  0  0  0
 13 14  1  0  0  0  0
M  END
$$$$
