7FPK
  PyMOL2.5          3D                             0

 13 14  0  0  0  0  0  0  0  0999 V2000
   45.9413   21.6012  -67.6569 N   0  0  0  0  0  0  0  0  0  0  0  0
   43.7590   21.3570  -66.8164 C   0  0  0  0  0  0  0  0  0  0  0  0
   43.7950   20.0550  -67.1411 C   0  0  0  0  0  0  0  0  0  0  0  0
   47.0690   19.6281  -68.2987 N   0  0  0  0  0  0  0  0  0  0  0  0
   44.8849   19.5298  -67.7257 C   0  0  0  0  0  0  0  0  0  0  0  0
   43.9650   18.1761  -69.4204 N   0  3  0  0  0  0  0  0  0  0  0  0
   45.9344   20.3107  -67.9268 C   0  0  0  0  0  0  0  0  0  0  0  0
   44.8673   22.1062  -67.1100 C   0  0  0  0  0  0  0  0  0  0  0  0
   47.1800   19.0921  -69.6260 C   0  0  0  0  0  0  0  0  0  0  0  0
   48.6283   18.7137  -69.6757 C   0  0  0  0  0  0  0  0  0  0  0  0
   49.2928   19.8963  -69.0251 C   0  0  0  0  0  0  0  0  0  0  0  0
   48.3104   20.3291  -67.9624 C   0  0  0  0  0  0  0  0  0  0  0  0
   44.8993   18.1388  -68.2052 C   0  0  0  0  0  0  0  0  0  0  0  0
  2  3  4  0  0  0  0
  3  5  4  0  0  0  0
  4  7  1  0  0  0  0
  4  9  1  0  0  0  0
  4 12  1  0  0  0  0
  6 13  1  0  0  0  0
  1  7  4  0  0  0  0
  5  7  4  0  0  0  0
  1  8  4  0  0  0  0
  2  8  4  0  0  0  0
  9 10  1  0  0  0  0
 10 11  1  0  0  0  0
 11 12  1  0  0  0  0
  5 13  1  0  0  0  0
M  END
$$$$
