7FR0
  PyMOL2.5          3D                             0

 68 70  0  0  0  0  0  0  0  0999 V2000
  -25.3431    6.7730   32.9466 C   0  0  0  0  0  0  0  0  0  0  0  0
  -24.4515    5.6249   32.4624 C   0  0  0  0  0  0  0  0  0  0  0  0
  -22.9921    5.8165   32.8711 C   0  0  0  0  0  0  0  0  0  0  0  0
  -22.0434    4.7271   32.3643 C   0  0  0  0  0  0  0  0  0  0  0  0
  -22.6046    3.3121   32.5077 C   0  0  0  0  0  0  0  0  0  0  0  0
  -22.9608    5.8801   34.3190 N   0  0  0  0  0  0  0  0  0  0  0  0
  -22.0833    6.8525   34.9807 C   0  0  0  0  0  0  0  0  0  0  0  0
  -21.4247    7.6018   34.3355 O   0  0  0  0  0  0  0  0  0  0  0  0
  -22.0582    6.9832   36.5014 C   0  0  0  0  0  0  0  0  0  0  0  0
  -21.4608    8.0635   37.1551 C   0  0  0  0  0  0  0  0  0  0  0  0
  -21.4876    8.1546   38.5455 C   0  0  0  0  0  0  0  0  0  0  0  0
  -22.0962    7.2338   39.2666 N   0  0  0  0  0  0  0  0  0  0  0  0
  -22.6874    6.1685   38.6742 C   0  0  0  0  0  0  0  0  0  0  0  0
  -23.3618    5.1146   39.1818 N   0  0  0  0  0  0  0  0  0  0  0  0
  -23.7478    4.3459   38.1740 C   0  0  0  0  0  0  0  0  0  0  0  0
  -24.4627    3.1719   38.2979 O   0  0  0  0  0  0  0  0  0  0  0  0
  -23.3657    4.8891   37.0257 N   0  0  0  0  0  0  0  0  0  0  0  0
  -22.6949    6.0243   37.3212 C   0  0  0  0  0  0  0  0  0  0  0  0
  -26.3827    6.5607   32.7078 H   0  0  0  0  0  0  0  0  0  0  0  0
  -25.2437    6.8906   34.0247 H   0  0  0  0  0  0  0  0  0  0  0  0
  -25.0447    7.6959   32.4558 H   0  0  0  0  0  0  0  0  0  0  0  0
  -24.7899    4.6878   32.8816 H   0  0  0  0  0  0  0  0  0  0  0  0
  -24.5249    5.5725   31.3793 H   0  0  0  0  0  0  0  0  0  0  0  0
  -22.6718    6.7709   32.4840 H   0  0  0  0  0  0  0  0  0  0  0  0
  -21.8226    4.9018   31.3155 H   0  0  0  0  0  0  0  0  0  0  0  0
  -21.1180    4.7898   32.9286 H   0  0  0  0  0  0  0  0  0  0  0  0
  -21.8652    2.5968   32.1611 H   0  0  0  0  0  0  0  0  0  0  0  0
  -22.8348    3.1204   33.5499 H   0  0  0  0  0  0  0  0  0  0  0  0
  -23.5061    3.2102   31.9071 H   0  0  0  0  0  0  0  0  0  0  0  0
  -23.5484    5.2381   34.8305 H   0  0  0  0  0  0  0  0  0  0  0  0
  -20.9573    8.8302   36.5883 H   0  0  0  0  0  0  0  0  0  0  0  0
  -21.0121    8.9981   39.0397 H   0  0  0  0  0  0  0  0  0  0  0  0
  -23.5514    4.9494   40.1447 H   0  0  0  0  0  0  0  0  0  0  0  0
  -25.3481    3.4204   38.3799 H   0  0  0  0  0  0  0  0  0  0  0  0
  -25.6345    7.0867   32.9138 C   0  0  0  0  0  0  0  0  0  0  0  0
  -24.6630    6.7690   31.7756 C   0  0  0  0  0  0  0  0  0  0  0  0
  -23.4824    5.8998   32.2078 C   0  0  0  0  0  0  0  0  0  0  0  0
  -23.2687    4.6780   31.3186 C   0  0  0  0  0  0  0  0  0  0  0  0
  -22.4371    3.5962   32.0247 C   0  0  0  0  0  0  0  0  0  0  0  0
  -23.7608    5.2971   33.4725 N   0  0  0  0  0  0  0  0  0  0  0  0
  -22.9821    5.5193   34.6497 C   0  0  0  0  0  0  0  0  0  0  0  0
  -22.0584    6.2602   34.6789 O   0  0  0  0  0  0  0  0  0  0  0  0
  -23.4617    4.7530   35.8652 C   0  0  0  0  0  0  0  0  0  0  0  0
  -24.1558    3.5453   35.7766 C   0  0  0  0  0  0  0  0  0  0  0  0
  -24.5688    2.8966   36.9368 C   0  0  0  0  0  0  0  0  0  0  0  0
  -24.3155    3.4220   38.1180 N   0  0  0  0  0  0  0  0  0  0  0  0
  -23.6475    4.5969   38.2271 C   0  0  0  0  0  0  0  0  0  0  0  0
  -23.2723    5.3250   39.2893 N   0  0  0  0  0  0  0  0  0  0  0  0
  -22.6245    6.4040   38.8744 C   0  0  0  0  0  0  0  0  0  0  0  0
  -22.1128    7.4027   39.6839 O   0  0  0  0  0  0  0  0  0  0  0  0
  -22.5886    6.4014   37.5479 N   0  0  0  0  0  0  0  0  0  0  0  0
  -23.2152    5.2739   37.1428 C   0  0  0  0  0  0  0  0  0  0  0  0
  -26.0932    6.1668   33.2738 H   0  0  0  0  0  0  0  0  0  0  0  0
  -25.1052    7.5722   33.7280 H   0  0  0  0  0  0  0  0  0  0  0  0
  -26.4139    7.7483   32.5446 H   0  0  0  0  0  0  0  0  0  0  0  0
  -25.2066    6.2473   31.0024 H   0  0  0  0  0  0  0  0  0  0  0  0
  -24.2800    7.7004   31.3697 H   0  0  0  0  0  0  0  0  0  0  0  0
  -22.5838    6.5019   32.2721 H   0  0  0  0  0  0  0  0  0  0  0  0
  -22.7694    4.9839   30.4154 H   0  0  0  0  0  0  0  0  0  0  0  0
  -24.2418    4.2564   31.0663 H   0  0  0  0  0  0  0  0  0  0  0  0
  -21.5824    4.0550   32.5187 H   0  0  0  0  0  0  0  0  0  0  0  0
  -22.0833    2.8778   31.2912 H   0  0  0  0  0  0  0  0  0  0  0  0
  -23.0417    3.0734   32.7675 H   0  0  0  0  0  0  0  0  0  0  0  0
  -24.5099    4.6595   33.5366 H   0  0  0  0  0  0  0  0  0  0  0  0
  -24.3762    3.1051   34.8120 H   0  0  0  0  0  0  0  0  0  0  0  0
  -25.1025    1.9559   36.8700 H   0  0  0  0  0  0  0  0  0  0  0  0
  -23.4504    5.0839   40.2238 H   0  0  0  0  0  0  0  0  0  0  0  0
  -22.7419    8.0965   39.6175 H   0  0  0  0  0  0  0  0  0  0  0  0
  1  2  1  0  0  0  0
  1 19  1  0  0  0  0
  1 20  1  0  0  0  0
  1 21  1  0  0  0  0
  2  3  1  0  0  0  0
  2 22  1  0  0  0  0
  2 23  1  0  0  0  0
  3  4  1  0  0  0  0
  3  6  1  0  0  0  0
  3 24  1  0  0  0  0
  4  5  1  0  0  0  0
  4 25  1  0  0  0  0
  4 26  1  0  0  0  0
  5 27  1  0  0  0  0
  5 28  1  0  0  0  0
  5 29  1  0  0  0  0
  6 30  1  0  0  0  0
  6  7  1  0  0  0  0
  7  8  2  0  0  0  0
  7  9  1  0  0  0  0
  9 10  4  0  0  0  0
 10 31  1  0  0  0  0
 10 11  4  0  0  0  0
 11 12  4  0  0  0  0
 11 32  1  0  0  0  0
 12 13  4  0  0  0  0
 13 14  4  0  0  0  0
 14 33  1  0  0  0  0
 14 15  4  0  0  0  0
 15 16  1  0  0  0  0
 15 17  4  0  0  0  0
 16 34  1  0  0  0  0
  9 18  4  0  0  0  0
 13 18  4  0  0  0  0
 17 18  4  0  0  0  0
 35 36  1  0  0  0  0
 35 53  1  0  0  0  0
 35 54  1  0  0  0  0
 35 55  1  0  0  0  0
 36 37  1  0  0  0  0
 36 56  1  0  0  0  0
 36 57  1  0  0  0  0
 37 38  1  0  0  0  0
 37 40  1  0  0  0  0
 37 58  1  0  0  0  0
 38 39  1  0  0  0  0
 38 59  1  0  0  0  0
 38 60  1  0  0  0  0
 39 61  1  0  0  0  0
 39 62  1  0  0  0  0
 39 63  1  0  0  0  0
 40 64  1  0  0  0  0
 40 41  1  0  0  0  0
 41 42  2  0  0  0  0
 41 43  1  0  0  0  0
 43 44  4  0  0  0  0
 44 65  1  0  0  0  0
 44 45  4  0  0  0  0
 45 46  4  0  0  0  0
 45 66  1  0  0  0  0
 46 47  4  0  0  0  0
 47 48  4  0  0  0  0
 48 67  1  0  0  0  0
 48 49  4  0  0  0  0
 49 50  1  0  0  0  0
 49 51  4  0  0  0  0
 50 68  1  0  0  0  0
 43 52  4  0  0  0  0
 47 52  4  0  0  0  0
 51 52  4  0  0  0  0
M  END
$$$$
