7FR2
  PyMOL2.5          3D                             0

 53 55  0  0  0  0  0  0  0  0999 V2000
  -84.4888  -23.3896   -5.7380 O   0  0  0  0  0  0  0  0  0  0  0  0
  -84.4700  -24.2674   -4.9386 C   0  0  0  0  0  0  0  0  0  0  0  0
  -83.2878  -24.5231   -4.1393 N   0  0  0  0  0  0  0  0  0  0  0  0
  -82.0713  -23.7432   -4.2722 C   0  0  0  0  0  0  0  0  0  0  0  0
  -80.8925  -24.7175   -4.3542 C   0  0  0  0  0  0  0  0  0  0  0  0
  -81.0453  -25.6880   -5.4198 N   0  0  0  0  0  0  0  0  0  0  0  0
  -80.5514  -25.3403   -6.7282 C   0  0  0  0  0  0  0  0  0  0  0  0
  -80.5772  -26.2771   -7.7956 C   0  0  0  0  0  0  0  0  0  0  0  0
  -80.9778  -27.5668   -7.9279 N   0  0  0  0  0  0  0  0  0  0  0  0
  -80.7505  -27.9308   -9.1909 C   0  0  0  0  0  0  0  0  0  0  0  0
  -80.2034  -26.9067   -9.8483 N   0  0  0  0  0  0  0  0  0  0  0  0
  -80.0889  -25.8642   -8.9964 C   0  0  0  0  0  0  0  0  0  0  0  0
  -79.6127  -24.5984   -9.1325 N   0  0  0  0  0  0  0  0  0  0  0  0
  -79.6050  -23.7677   -8.1136 C   0  0  0  0  0  0  0  0  0  0  0  0
  -80.0679  -24.1275   -6.9328 N   0  0  0  0  0  0  0  0  0  0  0  0
  -81.8254  -22.8665   -3.0459 C   0  0  0  0  0  0  0  0  0  0  0  0
  -82.8456  -21.7519   -2.8421 C   0  0  0  0  0  0  0  0  0  0  0  0
  -85.6843  -25.1727   -4.7286 C   0  0  0  0  0  0  0  0  0  0  0  0
  -87.0181  -24.4424   -4.6329 C   0  0  0  0  0  0  0  0  0  0  0  0
  -87.1780  -23.5825   -3.3830 C   0  0  0  0  0  0  0  0  0  0  0  0
  -88.6397  -23.1882   -3.2381 C   0  0  0  0  0  0  0  0  0  0  0  0
  -89.1685  -23.4653   -1.8344 C   0  0  0  0  0  0  0  0  0  0  0  0
  -88.2497  -22.9220   -0.7595 C   0  0  0  0  0  0  0  0  0  0  0  0
  -86.8503  -23.4912   -0.9013 C   0  0  0  0  0  0  0  0  0  0  0  0
  -86.7196  -24.3500   -2.1558 C   0  0  0  0  0  0  0  0  0  0  0  0
  -83.3139  -25.1641   -3.5742 H   0  0  0  0  0  0  0  0  0  0  0  0
  -82.1140  -23.2001   -5.0786 H   0  0  0  0  0  0  0  0  0  0  0  0
  -80.0694  -24.2218   -4.4990 H   0  0  0  0  0  0  0  0  0  0  0  0
  -80.8193  -25.2004   -3.5215 H   0  0  0  0  0  0  0  0  0  0  0  0
  -81.4063  -26.4592   -5.2742 H   0  0  0  0  0  0  0  0  0  0  0  0
  -80.9604  -28.7543   -9.5452 H   0  0  0  0  0  0  0  0  0  0  0  0
  -79.9891  -26.8981  -10.6767 H   0  0  0  0  0  0  0  0  0  0  0  0
  -79.2714  -22.9124   -8.2255 H   0  0  0  0  0  0  0  0  0  0  0  0
  -81.8301  -23.4321   -2.2597 H   0  0  0  0  0  0  0  0  0  0  0  0
  -80.9476  -22.4642   -3.1312 H   0  0  0  0  0  0  0  0  0  0  0  0
  -82.6127  -21.2459   -2.0456 H   0  0  0  0  0  0  0  0  0  0  0  0
  -82.8395  -21.1629   -3.6110 H   0  0  0  0  0  0  0  0  0  0  0  0
  -83.7275  -22.1373   -2.7323 H   0  0  0  0  0  0  0  0  0  0  0  0
  -85.7502  -25.7667   -5.4792 H   0  0  0  0  0  0  0  0  0  0  0  0
  -85.5542  -25.7202   -3.9345 H   0  0  0  0  0  0  0  0  0  0  0  0
  -87.7163  -25.0991   -4.6271 H   0  0  0  0  0  0  0  0  0  0  0  0
  -87.1420  -23.9077   -5.4262 H   0  0  0  0  0  0  0  0  0  0  0  0
  -86.6321  -22.7805   -3.4582 H   0  0  0  0  0  0  0  0  0  0  0  0
  -88.7251  -22.2444   -3.4142 H   0  0  0  0  0  0  0  0  0  0  0  0
  -89.1664  -23.6871   -3.8811 H   0  0  0  0  0  0  0  0  0  0  0  0
  -89.9800  -22.9761   -1.7283 H   0  0  0  0  0  0  0  0  0  0  0  0
  -89.3318  -24.4221   -1.7119 H   0  0  0  0  0  0  0  0  0  0  0  0
  -88.6087  -23.1610    0.1079 H   0  0  0  0  0  0  0  0  0  0  0  0
  -88.2194  -21.9567   -0.8438 H   0  0  0  0  0  0  0  0  0  0  0  0
  -86.2174  -22.7570   -0.9683 H   0  0  0  0  0  0  0  0  0  0  0  0
  -86.6482  -24.0240   -0.1217 H   0  0  0  0  0  0  0  0  0  0  0  0
  -87.2252  -25.1850   -2.0543 H   0  0  0  0  0  0  0  0  0  0  0  0
  -85.7881  -24.5542   -2.2809 H   0  0  0  0  0  0  0  0  0  0  0  0
  1  2  2  0  0  0  0
  2  3  1  0  0  0  0
  3 26  1  0  0  0  0
  3  4  1  0  0  0  0
  4  5  1  0  0  0  0
  4 27  1  0  0  0  0
  5  6  1  0  0  0  0
  5 28  1  0  0  0  0
  5 29  1  0  0  0  0
  6 30  1  0  0  0  0
  6  7  1  0  0  0  0
  7  8  4  0  0  0  0
  7 15  4  0  0  0  0
  8  9  4  0  0  0  0
  9 10  4  0  0  0  0
 10 11  4  0  0  0  0
 10 31  1  0  0  0  0
 11 32  1  0  0  0  0
  8 12  4  0  0  0  0
 11 12  4  0  0  0  0
 12 13  4  0  0  0  0
 13 14  4  0  0  0  0
 14 15  4  0  0  0  0
 14 33  1  0  0  0  0
  4 16  1  0  0  0  0
 16 17  1  0  0  0  0
 16 34  1  0  0  0  0
 16 35  1  0  0  0  0
 17 36  1  0  0  0  0
 17 37  1  0  0  0  0
 17 38  1  0  0  0  0
  2 18  1  0  0  0  0
 18 19  1  0  0  0  0
 18 39  1  0  0  0  0
 18 40  1  0  0  0  0
 19 41  1  0  0  0  0
 19 42  1  0  0  0  0
 19 20  1  0  0  0  0
 20 21  1  0  0  0  0
 20 25  1  0  0  0  0
 20 43  1  0  0  0  0
 21 22  1  0  0  0  0
 21 44  1  0  0  0  0
 21 45  1  0  0  0  0
 22 23  1  0  0  0  0
 22 46  1  0  0  0  0
 22 47  1  0  0  0  0
 23 24  1  0  0  0  0
 23 48  1  0  0  0  0
 23 49  1  0  0  0  0
 24 25  1  0  0  0  0
 24 50  1  0  0  0  0
 24 51  1  0  0  0  0
 25 52  1  0  0  0  0
 25 53  1  0  0  0  0
M  END
$$$$
