7FR3
  PyMOL2.5          3D                             0

 53 55  0  0  0  0  0  0  0  0999 V2000
    2.8388  -45.2173   23.4971 O   0  0  0  0  0  0  0  0  0  0  0  0
    3.0069  -44.9978   22.3397 C   0  0  0  0  0  0  0  0  0  0  0  0
    1.8956  -44.6876   21.4694 N   0  0  0  0  0  0  0  0  0  0  0  0
    0.5221  -44.6398   21.9210 C   0  0  0  0  0  0  0  0  0  0  0  0
   -0.3121  -45.3962   20.8827 C   0  0  0  0  0  0  0  0  0  0  0  0
    0.1683  -46.7478   20.6632 N   0  0  0  0  0  0  0  0  0  0  0  0
   -0.3252  -47.8044   21.5120 C   0  0  0  0  0  0  0  0  0  0  0  0
    0.0270  -49.1556   21.2786 C   0  0  0  0  0  0  0  0  0  0  0  0
    0.7839  -49.7726   20.3484 N   0  0  0  0  0  0  0  0  0  0  0  0
    0.7691  -51.0745   20.6033 C   0  0  0  0  0  0  0  0  0  0  0  0
   -0.0032  -51.3045   21.6734 N   0  0  0  0  0  0  0  0  0  0  0  0
   -0.4741  -50.1079   22.1136 C   0  0  0  0  0  0  0  0  0  0  0  0
   -1.2793  -49.7251   23.1339 N   0  0  0  0  0  0  0  0  0  0  0  0
   -1.5823  -48.4573   23.3136 C   0  0  0  0  0  0  0  0  0  0  0  0
   -1.1223  -47.5067   22.5197 N   0  0  0  0  0  0  0  0  0  0  0  0
   -0.0177  -43.2108   21.9807 C   0  0  0  0  0  0  0  0  0  0  0  0
    0.6373  -42.3559   23.0594 C   0  0  0  0  0  0  0  0  0  0  0  0
    4.3897  -45.0339   21.6829 C   0  0  0  0  0  0  0  0  0  0  0  0
    5.5134  -44.3843   22.4769 C   0  0  0  0  0  0  0  0  0  0  0  0
    5.3332  -42.8876   22.6799 C   0  0  0  0  0  0  0  0  0  0  0  0
    6.5735  -42.3407   23.3627 C   0  0  0  0  0  0  0  0  0  0  0  0
    6.4075  -40.8577   23.6594 C   0  0  0  0  0  0  0  0  0  0  0  0
    6.0788  -40.0572   22.4023 C   0  0  0  0  0  0  0  0  0  0  0  0
    4.9119  -40.6708   21.6339 C   0  0  0  0  0  0  0  0  0  0  0  0
    5.1384  -42.1551   21.3659 C   0  0  0  0  0  0  0  0  0  0  0  0
    2.0622  -44.5344   20.6491 H   0  0  0  0  0  0  0  0  0  0  0  0
    0.4441  -45.0706   22.7883 H   0  0  0  0  0  0  0  0  0  0  0  0
   -0.2744  -44.9278   20.0360 H   0  0  0  0  0  0  0  0  0  0  0  0
   -1.2359  -45.4390   21.1726 H   0  0  0  0  0  0  0  0  0  0  0  0
    0.7161  -46.9231   20.0205 H   0  0  0  0  0  0  0  0  0  0  0  0
    1.2402  -51.6990   20.1185 H   0  0  0  0  0  0  0  0  0  0  0  0
    1.2178  -49.3821   19.7172 H   0  0  0  0  0  0  0  0  0  0  0  0
   -2.1389  -48.2210   24.0142 H   0  0  0  0  0  0  0  0  0  0  0  0
   -0.9720  -43.2467   22.1545 H   0  0  0  0  0  0  0  0  0  0  0  0
    0.1256  -42.7864   21.1218 H   0  0  0  0  0  0  0  0  0  0  0  0
    0.4811  -42.7554   23.9272 H   0  0  0  0  0  0  0  0  0  0  0  0
    1.5897  -42.3007   22.8926 H   0  0  0  0  0  0  0  0  0  0  0  0
    0.2530  -41.4639   23.0398 H   0  0  0  0  0  0  0  0  0  0  0  0
    4.6377  -45.9577   21.5487 H   0  0  0  0  0  0  0  0  0  0  0  0
    4.3389  -44.6133   20.8087 H   0  0  0  0  0  0  0  0  0  0  0  0
    5.5656  -44.8078   23.3443 H   0  0  0  0  0  0  0  0  0  0  0  0
    6.3484  -44.5273   22.0113 H   0  0  0  0  0  0  0  0  0  0  0  0
    4.5560  -42.7245   23.2421 H   0  0  0  0  0  0  0  0  0  0  0  0
    6.7228  -42.8200   24.1848 H   0  0  0  0  0  0  0  0  0  0  0  0
    7.3366  -42.4599   22.7686 H   0  0  0  0  0  0  0  0  0  0  0  0
    7.2234  -40.5210   24.0496 H   0  0  0  0  0  0  0  0  0  0  0  0
    5.6795  -40.7540   24.2928 H   0  0  0  0  0  0  0  0  0  0  0  0
    5.8515  -39.1496   22.6532 H   0  0  0  0  0  0  0  0  0  0  0  0
    6.8607  -40.0436   21.8226 H   0  0  0  0  0  0  0  0  0  0  0  0
    4.8007  -40.2043   20.7945 H   0  0  0  0  0  0  0  0  0  0  0  0
    4.1017  -40.5732   22.1660 H   0  0  0  0  0  0  0  0  0  0  0  0
    5.9262  -42.2674   20.8002 H   0  0  0  0  0  0  0  0  0  0  0  0
    4.3664  -42.5243   20.9280 H   0  0  0  0  0  0  0  0  0  0  0  0
  1  2  2  0  0  0  0
  2  3  1  0  0  0  0
  3 26  1  0  0  0  0
  3  4  1  0  0  0  0
  4  5  1  0  0  0  0
  4 27  1  0  0  0  0
  5  6  1  0  0  0  0
  5 28  1  0  0  0  0
  5 29  1  0  0  0  0
  6 30  1  0  0  0  0
  6  7  1  0  0  0  0
  7  8  4  0  0  0  0
  7 15  4  0  0  0  0
  8  9  4  0  0  0  0
  9 32  1  0  0  0  0
  9 10  4  0  0  0  0
 10 11  4  0  0  0  0
 10 31  1  0  0  0  0
  8 12  4  0  0  0  0
 11 12  4  0  0  0  0
 12 13  4  0  0  0  0
 13 14  4  0  0  0  0
 14 15  4  0  0  0  0
 14 33  1  0  0  0  0
  4 16  1  0  0  0  0
 16 17  1  0  0  0  0
 16 34  1  0  0  0  0
 16 35  1  0  0  0  0
 17 36  1  0  0  0  0
 17 37  1  0  0  0  0
 17 38  1  0  0  0  0
  2 18  1  0  0  0  0
 18 19  1  0  0  0  0
 18 39  1  0  0  0  0
 18 40  1  0  0  0  0
 19 41  1  0  0  0  0
 19 42  1  0  0  0  0
 19 20  1  0  0  0  0
 20 21  1  0  0  0  0
 20 25  1  0  0  0  0
 20 43  1  0  0  0  0
 21 22  1  0  0  0  0
 21 44  1  0  0  0  0
 21 45  1  0  0  0  0
 22 23  1  0  0  0  0
 22 46  1  0  0  0  0
 22 47  1  0  0  0  0
 23 24  1  0  0  0  0
 23 48  1  0  0  0  0
 23 49  1  0  0  0  0
 24 25  1  0  0  0  0
 24 50  1  0  0  0  0
 24 51  1  0  0  0  0
 25 52  1  0  0  0  0
 25 53  1  0  0  0  0
M  END
$$$$
