7FR5
  PyMOL2.5          3D                             0

 28 29  0  0  0  0  0  0  0  0999 V2000
  -64.2138   -6.1204   -2.5316 C   0  0  0  0  0  0  0  0  0  0  0  0
  -63.3372   -5.5434   -1.4260 C   0  0  0  0  0  0  0  0  0  0  0  0
  -63.1725   -6.4970   -0.2499 C   0  0  0  0  0  0  0  0  0  0  0  0
  -63.4644   -7.8499   -0.6656 N   0  0  0  0  0  0  0  0  0  0  0  0
  -64.4856   -8.6164    0.0176 C   0  0  0  0  0  0  0  0  0  0  0  0
  -65.1280   -8.1554    0.8993 O   0  0  0  0  0  0  0  0  0  0  0  0
  -64.7459  -10.0178   -0.5028 C   0  0  0  0  0  0  0  0  0  0  0  0
  -63.7606  -10.8125   -1.0572 C   0  0  0  0  0  0  0  0  0  0  0  0
  -64.0870  -12.0767   -1.5377 C   0  0  0  0  0  0  0  0  0  0  0  0
  -65.3175  -12.5330   -1.4859 N   0  0  0  0  0  0  0  0  0  0  0  0
  -66.3045  -11.7866   -0.9565 C   0  0  0  0  0  0  0  0  0  0  0  0
  -67.6255  -12.0116   -0.7834 N   0  0  0  0  0  0  0  0  0  0  0  0
  -68.1543  -10.9362   -0.2008 C   0  0  0  0  0  0  0  0  0  0  0  0
  -69.4885  -10.7582    0.1316 O   0  0  0  0  0  0  0  0  0  0  0  0
  -67.2006  -10.0275   -0.0086 N   0  0  0  0  0  0  0  0  0  0  0  0
  -66.0470  -10.5471   -0.4750 C   0  0  0  0  0  0  0  0  0  0  0  0
  -63.7043   -6.9526   -3.0114 H   0  0  0  0  0  0  0  0  0  0  0  0
  -64.4088   -5.3486   -3.2660 H   0  0  0  0  0  0  0  0  0  0  0  0
  -65.1527   -6.4649   -2.1095 H   0  0  0  0  0  0  0  0  0  0  0  0
  -62.3563   -5.3357   -1.8347 H   0  0  0  0  0  0  0  0  0  0  0  0
  -63.7761   -4.6219   -1.0689 H   0  0  0  0  0  0  0  0  0  0  0  0
  -62.1530   -6.4586    0.1017 H   0  0  0  0  0  0  0  0  0  0  0  0
  -63.8472   -6.1981    0.5454 H   0  0  0  0  0  0  0  0  0  0  0  0
  -62.9456   -8.2696   -1.4178 H   0  0  0  0  0  0  0  0  0  0  0  0
  -62.7477  -10.4548   -1.1142 H   0  0  0  0  0  0  0  0  0  0  0  0
  -63.3220  -12.7000   -1.9565 H   0  0  0  0  0  0  0  0  0  0  0  0
  -68.1334  -12.8272   -1.0490 H   0  0  0  0  0  0  0  0  0  0  0  0
  -69.5356  -10.3000    0.9589 H   0  0  0  0  0  0  0  0  0  0  0  0
  1  2  1  0  0  0  0
  1 17  1  0  0  0  0
  1 18  1  0  0  0  0
  1 19  1  0  0  0  0
  2  3  1  0  0  0  0
  2 20  1  0  0  0  0
  2 21  1  0  0  0  0
  3  4  1  0  0  0  0
  3 22  1  0  0  0  0
  3 23  1  0  0  0  0
  4 24  1  0  0  0  0
  4  5  1  0  0  0  0
  5  6  2  0  0  0  0
  5  7  1  0  0  0  0
  7  8  4  0  0  0  0
  8  9  4  0  0  0  0
  8 25  1  0  0  0  0
  9 10  4  0  0  0  0
  9 26  1  0  0  0  0
 10 11  4  0  0  0  0
 11 12  4  0  0  0  0
 12 27  1  0  0  0  0
 12 13  4  0  0  0  0
 13 14  1  0  0  0  0
 13 15  4  0  0  0  0
 14 28  1  0  0  0  0
  7 16  4  0  0  0  0
 11 16  4  0  0  0  0
 15 16  4  0  0  0  0
M  END
$$$$
