7FR7
  PyMOL2.5          3D                             0

 37 39  0  0  0  0  0  0  0  0999 V2000
    3.7467  -24.1058   17.9883 O   0  0  0  0  0  0  0  0  0  0  0  0
    4.2276  -24.5256   18.9873 C   0  0  0  0  0  0  0  0  0  0  0  0
    3.5765  -24.2040   20.2416 N   0  0  0  0  0  0  0  0  0  0  0  0
    2.3767  -23.3883   20.1128 C   0  0  0  0  0  0  0  0  0  0  0  0
    1.1112  -24.2296   20.0209 C   0  0  0  0  0  0  0  0  0  0  0  0
    1.1824  -25.4114   20.9804 C   0  0  0  0  0  0  0  0  0  0  0  0
    1.7998  -25.0228   22.3193 C   0  0  0  0  0  0  0  0  0  0  0  0
    3.2704  -25.3894   22.4462 C   0  0  0  0  0  0  0  0  0  0  0  0
    4.1987  -24.7093   21.4481 C   0  0  0  0  0  0  0  0  0  0  0  0
    5.5255  -25.3183   18.8239 C   0  0  0  0  0  0  0  0  0  0  0  0
    5.5704  -26.3892   17.9305 C   0  0  0  0  0  0  0  0  0  0  0  0
    6.7023  -27.0428   17.7642 N   0  0  0  0  0  0  0  0  0  0  0  0
    7.8481  -26.7253   18.4167 C   0  0  0  0  0  0  0  0  0  0  0  0
    9.0889  -27.5323   18.1601 N   0  0  0  0  0  0  0  0  0  0  0  0
   10.3290  -27.2279   18.8360 C   0  0  0  0  0  0  0  0  0  0  0  0
   11.2996  -27.8727   18.6248 O   0  0  0  0  0  0  0  0  0  0  0  0
   10.3599  -26.1351   19.7562 N   0  0  0  0  0  0  0  0  0  0  0  0
    9.1937  -25.3460   20.0223 C   0  0  0  0  0  0  0  0  0  0  0  0
    9.2425  -24.4457   20.7902 O   0  0  0  0  0  0  0  0  0  0  0  0
    7.8839  -25.6795   19.3017 C   0  0  0  0  0  0  0  0  0  0  0  0
    6.6959  -24.9386   19.5099 C   0  0  0  0  0  0  0  0  0  0  0  0
    2.3159  -22.7266   20.9747 H   0  0  0  0  0  0  0  0  0  0  0  0
    2.4441  -22.7658   19.2281 H   0  0  0  0  0  0  0  0  0  0  0  0
    1.0025  -24.5920   19.0055 H   0  0  0  0  0  0  0  0  0  0  0  0
    0.2547  -23.6110   20.2786 H   0  0  0  0  0  0  0  0  0  0  0  0
    0.1800  -25.7897   21.1566 H   0  0  0  0  0  0  0  0  0  0  0  0
    1.7841  -26.1992   20.5307 H   0  0  0  0  0  0  0  0  0  0  0  0
    1.2751  -25.5610   23.0847 H   0  0  0  0  0  0  0  0  0  0  0  0
    1.6736  -23.9633   22.4996 H   0  0  0  0  0  0  0  0  0  0  0  0
    3.6021  -25.1435   23.4448 H   0  0  0  0  0  0  0  0  0  0  0  0
    3.3699  -26.4620   22.2983 H   0  0  0  0  0  0  0  0  0  0  0  0
    4.8986  -25.4742   21.2027 H   0  0  0  0  0  0  0  0  0  0  0  0
    4.7548  -23.9027   21.8949 H   0  0  0  0  0  0  0  0  0  0  0  0
    4.6802  -26.6930   17.3873 H   0  0  0  0  0  0  0  0  0  0  0  0
    9.0942  -28.3029   17.5202 H   0  0  0  0  0  0  0  0  0  0  0  0
   11.2165  -25.9471   20.1958 H   0  0  0  0  0  0  0  0  0  0  0  0
    6.6861  -24.1241   20.2228 H   0  0  0  0  0  0  0  0  0  0  0  0
  1  2  2  0  0  0  0
  2  3  1  0  0  0  0
  3  4  1  0  0  0  0
  4  5  1  0  0  0  0
  4 22  1  0  0  0  0
  4 23  1  0  0  0  0
  5  6  1  0  0  0  0
  5 24  1  0  0  0  0
  5 25  1  0  0  0  0
  6  7  1  0  0  0  0
  6 26  1  0  0  0  0
  6 27  1  0  0  0  0
  7  8  1  0  0  0  0
  7 28  1  0  0  0  0
  7 29  1  0  0  0  0
  8  9  1  0  0  0  0
  8 30  1  0  0  0  0
  8 31  1  0  0  0  0
  3  9  1  0  0  0  0
  9 32  1  0  0  0  0
  9 33  1  0  0  0  0
  2 10  1  0  0  0  0
 10 21  4  0  0  0  0
 10 11  4  0  0  0  0
 11 12  4  0  0  0  0
 11 34  1  0  0  0  0
 12 13  4  0  0  0  0
 13 14  4  0  0  0  0
 13 20  4  0  0  0  0
 14 35  1  0  0  0  0
 14 15  4  0  0  0  0
 15 16  2  0  0  0  0
 15 17  4  0  0  0  0
 17 36  1  0  0  0  0
 17 18  4  0  0  0  0
 18 19  2  0  0  0  0
 18 20  4  0  0  0  0
 20 21  4  0  0  0  0
 21 37  1  0  0  0  0
M  END
$$$$
