7FR9
  PyMOL2.5          3D                             0

 32 34  0  0  0  0  0  0  0  0999 V2000
  -18.5695    9.5220   10.8435 C   0  0  0  0  0  0  0  0  0  0  0  0
  -18.4487    8.9624   12.2703 C   0  0  0  0  0  0  0  0  0  0  0  0
  -19.6663    9.0734   13.1894 C   0  0  0  0  0  0  0  0  0  0  0  0
  -19.2721    7.7132   12.6101 C   0  0  0  0  0  0  0  0  0  0  0  0
  -17.1832    9.1160   12.9735 N   0  0  0  0  0  0  0  0  0  0  0  0
  -16.1069    7.7865   12.9605 S   0  0  0  0  0  0  0  0  0  0  0  0
  -14.7446    8.1900   12.5973 O   0  0  0  0  0  0  0  0  0  0  0  0
  -16.4634    6.8155   11.9236 O   0  0  0  0  0  0  0  0  0  0  0  0
  -16.2075    7.0216   14.6101 C   0  0  0  0  0  0  0  0  0  0  0  0
  -15.4218    7.5404   15.6474 C   0  0  0  0  0  0  0  0  0  0  0  0
  -15.4602    7.0250   16.8661 N   0  0  0  0  0  0  0  0  0  0  0  0
  -16.2713    5.9738   17.1296 C   0  0  0  0  0  0  0  0  0  0  0  0
  -16.2721    5.4407   18.5172 N   0  0  0  0  0  0  0  0  0  0  0  0
  -17.1249    4.3052   18.8681 C   0  0  0  0  0  0  0  0  0  0  0  0
  -17.1224    3.8823   19.9784 O   0  0  0  0  0  0  0  0  0  0  0  0
  -17.9796    3.7113   17.8593 N   0  0  0  0  0  0  0  0  0  0  0  0
  -17.9872    4.2190   16.5192 C   0  0  0  0  0  0  0  0  0  0  0  0
  -18.6850    3.7275   15.6914 O   0  0  0  0  0  0  0  0  0  0  0  0
  -17.0864    5.4059   16.1654 C   0  0  0  0  0  0  0  0  0  0  0  0
  -17.0680    5.9359   14.8480 C   0  0  0  0  0  0  0  0  0  0  0  0
  -18.5992   10.6155   10.8976 H   0  0  0  0  0  0  0  0  0  0  0  0
  -19.4703    9.1292   10.3761 H   0  0  0  0  0  0  0  0  0  0  0  0
  -17.7051    9.2208   10.2641 H   0  0  0  0  0  0  0  0  0  0  0  0
  -20.5436    9.5366   12.7538 H   0  0  0  0  0  0  0  0  0  0  0  0
  -19.4385    9.2242   14.2470 H   0  0  0  0  0  0  0  0  0  0  0  0
  -19.9165    7.3322   11.8210 H   0  0  0  0  0  0  0  0  0  0  0  0
  -18.8218    7.0280   13.3200 H   0  0  0  0  0  0  0  0  0  0  0  0
  -17.1561    9.7571   13.7339 H   0  0  0  0  0  0  0  0  0  0  0  0
  -14.7765    8.3838   15.4441 H   0  0  0  0  0  0  0  0  0  0  0  0
  -15.6791    5.8717   19.2056 H   0  0  0  0  0  0  0  0  0  0  0  0
  -18.5670    2.9409   18.1029 H   0  0  0  0  0  0  0  0  0  0  0  0
  -17.6989    5.5160   14.0613 H   0  0  0  0  0  0  0  0  0  0  0  0
  1  2  1  0  0  0  0
  1 21  1  0  0  0  0
  1 22  1  0  0  0  0
  1 23  1  0  0  0  0
  2  3  1  0  0  0  0
  2  4  1  0  0  0  0
  2  5  1  0  0  0  0
  3  4  1  0  0  0  0
  3 24  1  0  0  0  0
  3 25  1  0  0  0  0
  4 26  1  0  0  0  0
  4 27  1  0  0  0  0
  5  6  1  0  0  0  0
  5 28  1  0  0  0  0
  6  7  2  0  0  0  0
  6  8  2  0  0  0  0
  6  9  1  0  0  0  0
  9 10  4  0  0  0  0
 10 11  4  0  0  0  0
 10 29  1  0  0  0  0
 11 12  4  0  0  0  0
 12 13  4  0  0  0  0
 12 19  4  0  0  0  0
 13 30  1  0  0  0  0
 13 14  4  0  0  0  0
 14 15  2  0  0  0  0
 14 16  4  0  0  0  0
 16 31  1  0  0  0  0
 16 17  4  0  0  0  0
 17 18  2  0  0  0  0
 17 19  4  0  0  0  0
  9 20  4  0  0  0  0
 19 20  4  0  0  0  0
 20 32  1  0  0  0  0
M  END
$$$$
