7OF8
  PyMOL2.5          3D                             0

 31 32  0  0  0  0  0  0  0  0999 V2000
    2.7283  -35.2572   36.2878 C   0  0  0  0  0  0  0  0  0  0  0  0
    3.2129  -34.2136   35.8162 O   0  0  0  0  0  0  0  0  0  0  0  0
    3.6987  -36.3615   36.7657 C   0  0  0  0  0  0  0  0  0  0  0  0
    1.5085  -35.4700   36.4101 O   0  0  0  0  0  0  0  0  0  0  0  0
    4.4886  -35.7228   37.8694 C   0  0  0  0  0  0  0  0  0  0  0  0
    2.9435  -37.4165   37.3072 O   0  0  0  0  0  0  0  0  0  0  0  0
    5.8181  -36.2911   38.4033 C   0  0  0  0  0  0  0  0  0  0  0  0
    6.1066  -35.4786   39.6710 C   0  0  0  0  0  0  0  0  0  0  0  0
    4.7642  -35.4110   40.3416 C   0  0  0  0  0  0  0  0  0  0  0  0
    3.7397  -35.7293   39.2403 C   0  0  0  0  0  0  0  0  0  0  0  0
    4.5297  -36.9265   35.6115 C   0  0  0  0  0  0  0  0  0  0  0  0
    4.2996  -36.5491   34.3008 C   0  0  0  0  0  0  0  0  0  0  0  0
    5.0159  -37.1139   33.2601 C   0  0  0  0  0  0  0  0  0  0  0  0
    5.9514  -38.0865   33.5155 C   0  0  0  0  0  0  0  0  0  0  0  0
    6.1847  -38.4826   34.8029 C   0  0  0  0  0  0  0  0  0  0  0  0
    5.4687  -37.9183   35.8419 C   0  0  0  0  0  0  0  0  0  0  0  0
    4.6976  -34.8507   37.4523 H   0  0  0  0  0  0  0  0  0  0  0  0
    5.7309  -37.2492   38.6150 H   0  0  0  0  0  0  0  0  0  0  0  0
    6.5399  -36.1760   37.7431 H   0  0  0  0  0  0  0  0  0  0  0  0
    6.4410  -34.5818   39.4516 H   0  0  0  0  0  0  0  0  0  0  0  0
    6.7674  -35.9291   40.2408 H   0  0  0  0  0  0  0  0  0  0  0  0
    4.6071  -34.5159   40.7136 H   0  0  0  0  0  0  0  0  0  0  0  0
    4.7067  -36.0678   41.0694 H   0  0  0  0  0  0  0  0  0  0  0  0
    3.3369  -36.6136   39.4018 H   0  0  0  0  0  0  0  0  0  0  0  0
    3.0259  -35.0504   39.2393 H   0  0  0  0  0  0  0  0  0  0  0  0
    2.3551  -37.6739   36.7520 H   0  0  0  0  0  0  0  0  0  0  0  0
    3.6438  -35.8962   34.1145 H   0  0  0  0  0  0  0  0  0  0  0  0
    4.8607  -36.8298   32.3733 H   0  0  0  0  0  0  0  0  0  0  0  0
    6.4317  -38.4801   32.8045 H   0  0  0  0  0  0  0  0  0  0  0  0
    6.8353  -39.1423   34.9832 H   0  0  0  0  0  0  0  0  0  0  0  0
    5.6219  -38.2136   36.7253 H   0  0  0  0  0  0  0  0  0  0  0  0
  1  2  4  0  0  0  0
  1  3  1  0  0  0  0
  1  4  4  0  0  0  0
  3  5  1  0  0  0  0
  3  6  1  0  0  0  0
  3 11  1  0  0  0  0
  5  7  1  0  0  0  0
  5 10  1  0  0  0  0
  5 17  1  0  0  0  0
  6 26  1  0  0  0  0
  7  8  1  0  0  0  0
  7 18  1  0  0  0  0
  7 19  1  0  0  0  0
  8  9  1  0  0  0  0
  8 20  1  0  0  0  0
  8 21  1  0  0  0  0
  9 10  1  0  0  0  0
  9 22  1  0  0  0  0
  9 23  1  0  0  0  0
 10 24  1  0  0  0  0
 10 25  1  0  0  0  0
 11 12  4  0  0  0  0
 12 27  1  0  0  0  0
 12 13  4  0  0  0  0
 13 14  4  0  0  0  0
 13 28  1  0  0  0  0
 14 15  4  0  0  0  0
 14 29  1  0  0  0  0
 15 16  4  0  0  0  0
 15 30  1  0  0  0  0
 11 16  4  0  0  0  0
 16 31  1  0  0  0  0
M  END
$$$$
