7QFT
  PyMOL2.5          3D                             0

109117  0  0  0  0  0  0  0  0999 V2000
   35.1644    6.2734  -35.9348 C   0  0  0  0  0  0  0  0  0  0  0  0
   32.1781    1.6611  -28.1912 C   0  0  0  0  0  0  0  0  0  0  0  0
   33.3780    2.3313  -27.5482 C   0  0  0  0  0  0  0  0  0  0  0  0
   33.0781    2.2712  -34.9552 C   0  0  0  0  0  0  0  0  0  0  0  0
   32.8009    3.6692  -34.4157 C   0  0  0  0  0  0  0  0  0  0  0  0
   32.5160    3.5989  -32.8898 C   0  0  0  0  0  0  0  0  0  0  0  0
   29.1667    3.2426  -31.2850 C   0  0  0  0  0  0  0  0  0  0  0  0
   30.6886    3.4374  -31.2251 C   0  0  0  0  0  0  0  0  0  0  0  0
   31.3066    2.3155  -30.3896 C   0  0  0  0  0  0  0  0  0  0  0  0
   28.5554    4.5389  -31.8280 C   0  0  0  0  0  0  0  0  0  0  0  0
   33.8182    5.5707  -35.6286 C   0  0  0  0  0  0  0  0  0  0  0  0
   32.7435    5.9544  -36.0951 O   0  0  0  0  0  0  0  0  0  0  0  0
   31.5532    2.6474  -29.1056 N   0  0  0  0  0  0  0  0  0  0  0  0
   33.9395    4.5156  -34.8077 N   0  0  0  0  0  0  0  0  0  0  0  0
   31.2127    3.4665  -32.5937 N   0  0  0  0  0  0  0  0  0  0  0  0
   33.4045    3.7207  -32.0412 O   0  0  0  0  0  0  0  0  0  0  0  0
   31.5730    1.2091  -30.8742 O   0  0  0  0  0  0  0  0  0  0  0  0
   35.2182    6.6410  -37.4204 C   0  0  0  0  0  0  0  0  0  0  0  0
   27.2131    4.3192  -32.1115 C   0  0  0  0  0  0  0  0  0  0  0  0
   26.4271    5.2178  -31.4891 C   0  0  0  0  0  0  0  0  0  0  0  0
   28.5601    5.6086  -30.7251 C   0  0  0  0  0  0  0  0  0  0  0  0
   26.6845    3.3845  -32.9016 C   0  0  0  0  0  0  0  0  0  0  0  0
   25.3129    3.2982  -33.0953 C   0  0  0  0  0  0  0  0  0  0  0  0
   24.5007    4.2161  -32.4494 C   0  0  0  0  0  0  0  0  0  0  0  0
   25.1037    5.1766  -31.6539 C   0  0  0  0  0  0  0  0  0  0  0  0
   27.1527    6.0684  -30.7593 N   0  0  0  0  0  0  0  0  0  0  0  0
   36.4952    6.4602  -37.9400 C   0  0  0  0  0  0  0  0  0  0  0  0
   36.9080    5.1703  -38.2656 C   0  0  0  0  0  0  0  0  0  0  0  0
   37.3583    7.5309  -38.1555 C   0  0  0  0  0  0  0  0  0  0  0  0
   38.1766    4.9521  -38.8023 C   0  0  0  0  0  0  0  0  0  0  0  0
   38.6267    7.3204  -38.6968 C   0  0  0  0  0  0  0  0  0  0  0  0
   39.0370    6.0282  -39.0167 C   0  0  0  0  0  0  0  0  0  0  0  0
   31.0001    1.0546  -26.9290 P   0  0  0  0  0  0  0  0  0  0  0  0
   31.5344    0.0102  -26.0389 O   0  0  0  0  0  0  0  0  0  0  0  0
   34.4608    2.2138  -28.6158 C   0  0  0  0  0  0  0  0  0  0  0  0
   35.6429    3.1035  -28.2549 C   0  0  0  0  0  0  0  0  0  0  0  0
   37.8997    3.5061  -29.1989 C   0  0  0  0  0  0  0  0  0  0  0  0
   31.8049    1.4536  -34.9526 C   0  0  0  0  0  0  0  0  0  0  0  0
   32.1619   -0.0212  -35.0170 C   0  0  0  0  0  0  0  0  0  0  0  0
   30.9146   -0.8590  -35.2948 C   0  0  0  0  0  0  0  0  0  0  0  0
   29.6424   -0.0462  -35.0494 C   0  0  0  0  0  0  0  0  0  0  0  0
   29.5853    1.1419  -36.0279 C   0  0  0  0  0  0  0  0  0  0  0  0
   30.9456    1.8355  -36.1454 C   0  0  0  0  0  0  0  0  0  0  0  0
   29.1395   -0.4331  -27.7059 C   0  0  0  0  0  0  0  0  0  0  0  0
   29.1672   -1.0243  -28.9798 C   0  0  0  0  0  0  0  0  0  0  0  0
   28.7906   -2.3568  -29.1462 C   0  0  0  0  0  0  0  0  0  0  0  0
   28.3886   -3.1146  -28.0596 C   0  0  0  0  0  0  0  0  0  0  0  0
   28.3531   -2.5366  -26.7949 C   0  0  0  0  0  0  0  0  0  0  0  0
   28.7289   -1.2011  -26.6170 C   0  0  0  0  0  0  0  0  0  0  0  0
   36.6841    2.9460  -29.2658 N   0  0  0  0  0  0  0  0  0  0  0  0
   38.1886    4.3325  -28.1812 N   0  0  0  0  0  0  0  0  0  0  0  0
   38.7826    3.2952  -30.1892 N   0  0  0  0  0  0  0  0  0  0  0  0
   29.5180    0.8760  -27.5593 O   0  0  0  0  0  0  0  0  0  0  0  0
    4.0344    3.4485  -54.4747 N   0  0  0  0  0  0  0  0  0  0  0  0
    4.8131    4.5967  -54.9555 C   0  0  0  0  0  0  0  0  0  0  0  0
    5.6689    6.0302  -46.3216 C   0  0  0  0  0  0  0  0  0  0  0  0
    6.5340    7.1118  -45.6703 C   0  0  0  0  0  0  0  0  0  0  0  0
    7.6337    7.9644  -53.0418 C   0  0  0  0  0  0  0  0  0  0  0  0
    7.0130    6.6291  -52.5538 C   0  0  0  0  0  0  0  0  0  0  0  0
    6.4251    6.8591  -51.1858 C   0  0  0  0  0  0  0  0  0  0  0  0
    3.0243    6.0503  -49.9058 C   0  0  0  0  0  0  0  0  0  0  0  0
    4.4194    6.6645  -49.8099 C   0  0  0  0  0  0  0  0  0  0  0  0
    5.0980    5.9582  -48.6741 C   0  0  0  0  0  0  0  0  0  0  0  0
    3.4483    3.3553  -53.2827 C   0  0  0  0  0  0  0  0  0  0  0  0
    2.2243    6.9205  -50.8325 C   0  0  0  0  0  0  0  0  0  0  0  0
    5.9574    4.9682  -54.0048 C   0  0  0  0  0  0  0  0  0  0  0  0
    6.8423    4.1579  -53.7617 O   0  0  0  0  0  0  0  0  0  0  0  0
    5.0323    6.6108  -47.5025 N   0  0  0  0  0  0  0  0  0  0  0  0
    5.9253    6.1773  -53.4380 N   0  0  0  0  0  0  0  0  0  0  0  0
    5.1503    6.4798  -51.0654 N   0  0  0  0  0  0  0  0  0  0  0  0
    7.1003    7.3749  -50.3018 O   0  0  0  0  0  0  0  0  0  0  0  0
    5.6525    4.8679  -48.8343 O   0  0  0  0  0  0  0  0  0  0  0  0
    3.4809    4.2395  -52.4378 O   0  0  0  0  0  0  0  0  0  0  0  0
    5.4625    4.0203  -56.2060 C   0  0  0  0  0  0  0  0  0  0  0  0
    1.0068    6.2910  -51.1235 C   0  0  0  0  0  0  0  0  0  0  0  0
   -0.0212    7.1049  -50.8375 C   0  0  0  0  0  0  0  0  0  0  0  0
    1.8685    8.2021  -50.0872 C   0  0  0  0  0  0  0  0  0  0  0  0
    0.7737    5.0787  -51.6340 C   0  0  0  0  0  0  0  0  0  0  0  0
   -0.5130    4.6136  -51.8730 C   0  0  0  0  0  0  0  0  0  0  0  0
   -1.5708    5.4518  -51.5721 C   0  0  0  0  0  0  0  0  0  0  0  0
   -1.2770    6.7063  -51.0616 C   0  0  0  0  0  0  0  0  0  0  0  0
    0.4166    8.2701  -50.3457 N   0  0  0  0  0  0  0  0  0  0  0  0
    4.5819    4.1941  -57.2822 C   0  0  0  0  0  0  0  0  0  0  0  0
    4.4065    5.4166  -57.9232 C   0  0  0  0  0  0  0  0  0  0  0  0
    3.8556    3.0854  -57.7144 C   0  0  0  0  0  0  0  0  0  0  0  0
    3.5027    5.5111  -58.9832 C   0  0  0  0  0  0  0  0  0  0  0  0
    2.9642    3.1764  -58.7770 C   0  0  0  0  0  0  0  0  0  0  0  0
    2.7846    4.3965  -59.4108 C   0  0  0  0  0  0  0  0  0  0  0  0
    4.4052    5.4219  -45.1480 P   0  0  0  0  0  0  0  0  0  0  0  0
    4.8927    4.7096  -43.9235 O   0  0  0  0  0  0  0  0  0  0  0  0
    7.8205    7.1162  -46.4777 C   0  0  0  0  0  0  0  0  0  0  0  0
    8.6839    8.3168  -46.0901 C   0  0  0  0  0  0  0  0  0  0  0  0
   10.9767    8.9762  -46.7248 C   0  0  0  0  0  0  0  0  0  0  0  0
    8.3528    7.8818  -54.3873 C   0  0  0  0  0  0  0  0  0  0  0  0
    9.6235    7.0369  -54.2293 C   0  0  0  0  0  0  0  0  0  0  0  0
   10.4762    7.1777  -55.4776 C   0  0  0  0  0  0  0  0  0  0  0  0
   10.9899    8.6059  -55.6099 C   0  0  0  0  0  0  0  0  0  0  0  0
   10.1837    9.5759  -54.7419 C   0  0  0  0  0  0  0  0  0  0  0  0
    8.7021    9.3023  -54.8508 C   0  0  0  0  0  0  0  0  0  0  0  0
    2.7784    3.5466  -45.9196 C   0  0  0  0  0  0  0  0  0  0  0  0
    1.5561    3.1849  -45.3486 C   0  0  0  0  0  0  0  0  0  0  0  0
    1.1789    1.8442  -45.3240 C   0  0  0  0  0  0  0  0  0  0  0  0
    2.0223    0.8814  -45.8671 C   0  0  0  0  0  0  0  0  0  0  0  0
    3.2351    1.2433  -46.4331 C   0  0  0  0  0  0  0  0  0  0  0  0
    3.6211    2.5742  -46.4669 C   0  0  0  0  0  0  0  0  0  0  0  0
    9.9079    8.1882  -46.8783 N   0  0  0  0  0  0  0  0  0  0  0  0
   12.0432    8.7607  -47.4976 N   0  0  0  0  0  0  0  0  0  0  0  0
   10.9538    9.9914  -45.8512 N   0  0  0  0  0  0  0  0  0  0  0  0
    3.1333    4.8613  -45.9261 O   0  0  0  0  0  0  0  0  0  0  0  0
  1 11  1  0  0  0  0
  1 18  1  0  0  0  0
  2  3  1  0  0  0  0
  2 13  1  0  0  0  0
  2 33  1  0  0  0  0
  3 35  1  0  0  0  0
  4  5  1  0  0  0  0
  4 38  1  0  0  0  0
  5  6  1  0  0  0  0
  5 14  1  0  0  0  0
  6 15  1  0  0  0  0
  6 16  2  0  0  0  0
  7  8  1  0  0  0  0
  7 10  1  0  0  0  0
  8  9  1  0  0  0  0
  8 15  1  0  0  0  0
  9 13  1  0  0  0  0
  9 17  2  0  0  0  0
 10 19  1  0  0  0  0
 10 21  1  0  0  0  0
 11 12  2  0  0  0  0
 11 14  1  0  0  0  0
 18 27  1  0  0  0  0
 19 20  4  0  0  0  0
 19 22  4  0  0  0  0
 20 25  4  0  0  0  0
 20 26  1  0  0  0  0
 21 26  1  0  0  0  0
 22 23  4  0  0  0  0
 23 24  4  0  0  0  0
 24 25  4  0  0  0  0
 27 28  4  0  0  0  0
 27 29  4  0  0  0  0
 28 30  4  0  0  0  0
 29 31  4  0  0  0  0
 30 32  4  0  0  0  0
 31 32  4  0  0  0  0
 33 34  2  0  0  0  0
 35 36  1  0  0  0  0
 36 50  1  0  0  0  0
 37 50  1  0  0  0  0
 37 51  4  0  0  0  0
 37 52  4  0  0  0  0
 38 39  1  0  0  0  0
 38 43  1  0  0  0  0
 39 40  1  0  0  0  0
 40 41  1  0  0  0  0
 41 42  1  0  0  0  0
 42 43  1  0  0  0  0
 44 45  4  0  0  0  0
 44 49  4  0  0  0  0
 44 53  1  0  0  0  0
 45 46  4  0  0  0  0
 46 47  4  0  0  0  0
 47 48  4  0  0  0  0
 48 49  4  0  0  0  0
 33 53  1  0  0  0  0
 54 55  1  0  0  0  0
 54 64  1  0  0  0  0
 55 66  1  0  0  0  0
 55 74  1  0  0  0  0
 56 57  1  0  0  0  0
 56 68  1  0  0  0  0
 56 89  1  0  0  0  0
 57 91  1  0  0  0  0
 58 59  1  0  0  0  0
 58 94  1  0  0  0  0
 59 60  1  0  0  0  0
 59 69  1  0  0  0  0
 60 70  1  0  0  0  0
 60 71  2  0  0  0  0
 61 62  1  0  0  0  0
 61 65  1  0  0  0  0
 62 63  1  0  0  0  0
 62 70  1  0  0  0  0
 63 68  1  0  0  0  0
 63 72  2  0  0  0  0
 64 73  1  0  0  0  0
 65 75  1  0  0  0  0
 65 77  1  0  0  0  0
 66 67  2  0  0  0  0
 66 69  1  0  0  0  0
 74 83  1  0  0  0  0
 75 76  4  0  0  0  0
 75 78  4  0  0  0  0
 76 81  4  0  0  0  0
 76 82  1  0  0  0  0
 77 82  1  0  0  0  0
 78 79  4  0  0  0  0
 79 80  4  0  0  0  0
 80 81  4  0  0  0  0
 83 84  4  0  0  0  0
 83 85  4  0  0  0  0
 84 86  4  0  0  0  0
 85 87  4  0  0  0  0
 86 88  4  0  0  0  0
 87 88  4  0  0  0  0
 89 90  2  0  0  0  0
 91 92  1  0  0  0  0
 92106  1  0  0  0  0
 93106  1  0  0  0  0
 93107  4  0  0  0  0
 93108  4  0  0  0  0
 94 95  1  0  0  0  0
 94 99  1  0  0  0  0
 95 96  1  0  0  0  0
 96 97  1  0  0  0  0
 97 98  1  0  0  0  0
 98 99  1  0  0  0  0
100101  4  0  0  0  0
100105  4  0  0  0  0
100109  1  0  0  0  0
101102  4  0  0  0  0
102103  4  0  0  0  0
103104  4  0  0  0  0
104105  4  0  0  0  0
 89109  1  0  0  0  0
M  END
$$$$
