7S7D
  PyMOL2.5          3D                             0

 28 24  0  0  0  0  0  0  0  0999 V2000
   39.1113    0.0650   20.1174 N   0  0  0  0  0  0  0  0  0  0  0  0
   40.5130   -0.1264   20.4468 C   0  0  0  0  0  0  0  0  0  0  0  0
   40.7684    0.1810   21.9162 C   0  0  0  0  0  0  0  0  0  0  0  0
   40.0534    0.9770   22.5025 O   0  0  0  0  0  0  0  0  0  0  0  0
   41.3730    0.7402   19.5721 C   0  0  0  0  0  0  0  0  0  0  0  0
   41.1644    0.2424   18.2622 O   0  0  0  0  0  0  0  0  0  0  0  0
   41.9085   -0.3116   16.0730 O   0  0  0  0  0  0  0  0  0  0  0  0
   43.3252   -0.8370   17.9841 O   0  5  0  0  0  0  0  0  0  0  0  0
   42.9458    1.4791   17.3707 O   0  0  0  0  0  0  0  0  0  0  0  0
   42.4439    0.1244   17.3463 S   0  0  0  0  0  0  0  0  0  0  0  0
   19.8386   -7.1140   27.0001 C   0  0  0  0  0  0  0  0  0  0  0  0
   19.8715   -8.5221   26.8086 O   0  0  0  0  0  0  0  0  0  0  0  0
   21.1196   -6.4543   26.5411 C   0  0  0  0  0  0  0  0  0  0  0  0
   22.2201   -6.9735   27.2877 O   0  0  0  0  0  0  0  0  0  0  0  0
   21.0727   -4.9490   26.6812 C   0  0  0  0  0  0  0  0  0  0  0  0
   22.2448   -4.3351   26.1549 O   0  0  0  0  0  0  0  0  0  0  0  0
    9.3646  -33.3122   39.3428 C   0  0  0  0  0  0  0  0  0  0  0  0
   10.0675  -33.3153   40.5820 O   0  0  0  0  0  0  0  0  0  0  0  0
    8.1162  -32.4590   39.4230 C   0  0  0  0  0  0  0  0  0  0  0  0
    7.0988  -33.0186   38.5952 O   0  0  0  0  0  0  0  0  0  0  0  0
    8.3584  -31.0176   39.0262 C   0  0  0  0  0  0  0  0  0  0  0  0
    7.2316  -30.1920   39.3130 O   0  0  0  0  0  0  0  0  0  0  0  0
   30.9087  -17.7335   46.6010 C   0  0  0  0  0  0  0  0  0  0  0  0
   30.8249  -17.6218   48.0193 O   0  0  0  0  0  0  0  0  0  0  0  0
   32.0692  -18.6041   46.1708 C   0  0  0  0  0  0  0  0  0  0  0  0
   33.2956  -17.9251   46.4360 O   0  0  0  0  0  0  0  0  0  0  0  0
   31.9931  -18.9977   44.7102 C   0  0  0  0  0  0  0  0  0  0  0  0
   33.1982  -19.6113   44.2559 O   0  0  0  0  0  0  0  0  0  0  0  0
  1  2  1  0  0  0  0
  2  3  1  0  0  0  0
  2  5  1  0  0  0  0
  3  4  2  0  0  0  0
  5  6  1  0  0  0  0
  6 10  1  0  0  0  0
  7 10  1  0  0  0  0
  8 10  1  0  0  0  0
  9 10  2  0  0  0  0
 11 12  1  0  0  0  0
 11 13  1  0  0  0  0
 13 14  1  0  0  0  0
 13 15  1  0  0  0  0
 15 16  1  0  0  0  0
 17 18  1  0  0  0  0
 17 19  1  0  0  0  0
 19 20  1  0  0  0  0
 19 21  1  0  0  0  0
 21 22  1  0  0  0  0
 23 24  1  0  0  0  0
 23 25  1  0  0  0  0
 25 26  1  0  0  0  0
 25 27  1  0  0  0  0
 27 28  1  0  0  0  0
M  END
$$$$
