7S8E
  PyMOL2.5          3D                             0

 59 52  0  0  0  0  0  0  0  0999 V2000
   56.2818   20.2759  -15.0664 N   0  0  0  0  0  0  0  0  0  0  0  0
   57.4221   21.1250  -14.5881 C   0  0  0  0  0  0  0  0  0  0  0  0
   57.4026   21.1129  -14.5385 C   0  0  0  0  0  0  0  0  0  0  0  0
   57.0260   22.6399  -14.5691 C   0  0  0  0  0  0  0  0  0  0  0  0
   56.2317   23.2680  -15.4351 O   0  0  0  0  0  0  0  0  0  0  0  0
   58.6093   20.9937  -15.5015 C   0  0  0  0  0  0  0  0  0  0  0  0
   58.6663   20.8212  -15.3101 C   0  0  0  0  0  0  0  0  0  0  0  0
   58.9764   19.6404  -15.5740 O   0  0  0  0  0  0  0  0  0  0  0  0
   58.5330   21.4152  -16.6127 O   0  0  0  0  0  0  0  0  0  0  0  0
   60.1701   19.2350  -16.5486 P   0  0  0  0  0  0  0  0  0  0  0  0
   59.7582   21.2437  -17.6352 P   0  0  0  0  0  0  0  0  0  0  0  0
   60.2259   17.7431  -16.4033 O   0  0  0  0  0  0  0  0  0  0  0  0
   60.0661   19.7564  -17.5490 O   0  0  0  0  0  0  0  0  0  0  0  0
   59.7656   19.7326  -17.8910 O   0  5  0  0  0  0  0  0  0  0  0  0
   59.2600   21.7035  -18.9883 O   0  5  0  0  0  0  0  0  0  0  0  0
   61.3738   19.9288  -15.9997 O   0  0  0  0  0  0  0  0  0  0  0  0
   60.8685   22.1166  -17.0920 O   0  0  0  0  0  0  0  0  0  0  0  0
   37.4368   16.1382   -9.6368 C   0  0  0  0  0  0  0  0  0  0  0  0
   38.5583   16.6044  -10.3911 O   0  0  0  0  0  0  0  0  0  0  0  0
   37.8647   15.4861   -8.3365 C   0  0  0  0  0  0  0  0  0  0  0  0
   36.7401   14.9034   -7.6633 O   0  0  0  0  0  0  0  0  0  0  0  0
   38.5756   16.4450   -7.3966 C   0  0  0  0  0  0  0  0  0  0  0  0
   37.7243   17.4990   -6.9398 O   0  0  0  0  0  0  0  0  0  0  0  0
   51.7942   30.5544  -11.1488 C   0  0  0  0  0  0  0  0  0  0  0  0
   52.9953   30.7632  -10.4071 O   0  0  0  0  0  0  0  0  0  0  0  0
   52.0439   29.8286  -12.4607 C   0  0  0  0  0  0  0  0  0  0  0  0
   52.1827   28.4223  -12.2429 O   0  0  0  0  0  0  0  0  0  0  0  0
   53.2747   30.3198  -13.1996 C   0  0  0  0  0  0  0  0  0  0  0  0
   53.7004   29.3992  -14.2064 O   0  0  0  0  0  0  0  0  0  0  0  0
   36.5930    3.6327   -4.1632 C   0  0  0  0  0  0  0  0  0  0  0  0
   37.3758    2.8378   -3.2793 O   0  0  0  0  0  0  0  0  0  0  0  0
   37.3385    3.9269   -5.4456 C   0  0  0  0  0  0  0  0  0  0  0  0
   37.6109    2.7077   -6.1335 O   0  0  0  0  0  0  0  0  0  0  0  0
   38.6373    4.6743   -5.2415 C   0  0  0  0  0  0  0  0  0  0  0  0
   39.4033    4.6906   -6.4442 O   0  0  0  0  0  0  0  0  0  0  0  0
   24.0051   18.0195    8.2642 C   0  0  0  0  0  0  0  0  0  0  0  0
   24.9396   17.9716    9.3296 O   0  0  0  0  0  0  0  0  0  0  0  0
   23.6805   16.6188    7.7669 C   0  0  0  0  0  0  0  0  0  0  0  0
   24.8844   15.9284    7.4473 O   0  0  0  0  0  0  0  0  0  0  0  0
   22.7842   16.6137    6.5654 C   0  0  0  0  0  0  0  0  0  0  0  0
   23.3036   17.4487    5.5418 O   0  0  0  0  0  0  0  0  0  0  0  0
   23.6614   10.9371   19.9255 C   0  0  0  0  0  0  0  0  0  0  0  0
   23.9357   12.3056   20.2049 O   0  0  0  0  0  0  0  0  0  0  0  0
   22.4681   10.8116   19.0056 C   0  0  0  0  0  0  0  0  0  0  0  0
   22.0151    9.4587   19.0063 O   0  0  0  0  0  0  0  0  0  0  0  0
   22.7707   11.2595   17.5891 C   0  0  0  0  0  0  0  0  0  0  0  0
   21.6117   11.2300   16.7570 O   0  0  0  0  0  0  0  0  0  0  0  0
   40.8918   30.7343   11.5974 C   0  0  0  0  0  0  0  0  0  0  0  0
   41.5080   29.7027   10.8369 O   0  0  0  0  0  0  0  0  0  0  0  0
   39.8960   31.5028   10.7591 C   0  0  0  0  0  0  0  0  0  0  0  0
   40.5364   32.6371   10.1766 O   0  0  0  0  0  0  0  0  0  0  0  0
   38.6980   31.9661   11.5508 C   0  0  0  0  0  0  0  0  0  0  0  0
   38.0408   33.0444   10.8989 O   0  0  0  0  0  0  0  0  0  0  0  0
   34.1811   33.1291   -6.7941 C   0  0  0  0  0  0  0  0  0  0  0  0
   35.2711   32.4397   -6.1855 O   0  0  0  0  0  0  0  0  0  0  0  0
   33.6047   32.3491   -7.9604 C   0  0  0  0  0  0  0  0  0  0  0  0
   32.5733   33.0941   -8.6096 O   0  0  0  0  0  0  0  0  0  0  0  0
   34.6451   31.9770   -8.9891 C   0  0  0  0  0  0  0  0  0  0  0  0
   34.3988   30.6804   -9.5178 O   0  0  0  0  0  0  0  0  0  0  0  0
  1  2  1  0  0  0  0
  1  3  1  0  0  0  0
  2  4  1  0  0  0  0
  2  6  1  0  0  0  0
  3  4  1  0  0  0  0
  3  7  1  0  0  0  0
  4  5  1  0  0  0  0
  6  8  1  0  0  0  0
  7  9  1  0  0  0  0
  8 10  1  0  0  0  0
  9 11  1  0  0  0  0
 10 12  1  0  0  0  0
 10 14  1  0  0  0  0
 10 16  2  0  0  0  0
 11 13  1  0  0  0  0
 11 15  1  0  0  0  0
 11 17  2  0  0  0  0
 18 19  1  0  0  0  0
 18 20  1  0  0  0  0
 20 21  1  0  0  0  0
 20 22  1  0  0  0  0
 22 23  1  0  0  0  0
 24 25  1  0  0  0  0
 24 26  1  0  0  0  0
 26 27  1  0  0  0  0
 26 28  1  0  0  0  0
 28 29  1  0  0  0  0
 30 31  1  0  0  0  0
 30 32  1  0  0  0  0
 32 33  1  0  0  0  0
 32 34  1  0  0  0  0
 34 35  1  0  0  0  0
 36 37  1  0  0  0  0
 36 38  1  0  0  0  0
 38 39  1  0  0  0  0
 38 40  1  0  0  0  0
 40 41  1  0  0  0  0
 42 43  1  0  0  0  0
 42 44  1  0  0  0  0
 44 45  1  0  0  0  0
 44 46  1  0  0  0  0
 46 47  1  0  0  0  0
 48 49  1  0  0  0  0
 48 50  1  0  0  0  0
 50 51  1  0  0  0  0
 50 52  1  0  0  0  0
 52 53  1  0  0  0  0
 54 55  1  0  0  0  0
 54 56  1  0  0  0  0
 56 57  1  0  0  0  0
 56 58  1  0  0  0  0
 58 59  1  0  0  0  0
M  END
$$$$
