7S8F
  PyMOL2.5          3D                             0

 36 30  0  0  0  0  0  0  0  0999 V2000
   31.6320   32.9409  -22.5221 C   0  0  0  0  0  0  0  0  0  0  0  0
   32.2206   31.6523  -22.6722 O   0  0  0  0  0  0  0  0  0  0  0  0
   31.1898   33.1644  -21.0918 C   0  0  0  0  0  0  0  0  0  0  0  0
   31.1110   34.5638  -20.8007 O   0  0  0  0  0  0  0  0  0  0  0  0
   29.8927   32.4372  -20.8087 C   0  0  0  0  0  0  0  0  0  0  0  0
   28.7639   33.3027  -20.6927 O   0  0  0  0  0  0  0  0  0  0  0  0
   52.1657   34.9602  -22.2295 C   0  0  0  0  0  0  0  0  0  0  0  0
   52.1740   33.5498  -22.4579 O   0  0  0  0  0  0  0  0  0  0  0  0
   50.7544   35.5011  -22.1172 C   0  0  0  0  0  0  0  0  0  0  0  0
   50.0113   34.6423  -21.2432 O   0  0  0  0  0  0  0  0  0  0  0  0
   50.6800   36.9538  -21.6611 C   0  0  0  0  0  0  0  0  0  0  0  0
   51.5716   37.2508  -20.5784 O   0  0  0  0  0  0  0  0  0  0  0  0
   21.6200   27.3033  -13.3724 C   0  0  0  0  0  0  0  0  0  0  0  0
   21.5399   27.1509  -13.4304 C   0  0  0  0  0  0  0  0  0  0  0  0
   21.1591   27.1612  -12.0319 O   0  0  0  0  0  0  0  0  0  0  0  0
   20.3513   26.4446  -13.7781 O   0  0  0  0  0  0  0  0  0  0  0  0
   22.6375   26.2388  -13.7131 C   0  0  0  0  0  0  0  0  0  0  0  0
   22.7364   26.2260  -13.3610 C   0  0  0  0  0  0  0  0  0  0  0  0
   22.0985   25.3638  -14.7048 O   0  0  0  0  0  0  0  0  0  0  0  0
   22.4504   25.0201  -14.0678 O   0  0  0  0  0  0  0  0  0  0  0  0
   23.9581   26.8058  -14.1875 C   0  0  0  0  0  0  0  0  0  0  0  0
   24.0043   26.8514  -13.9044 C   0  0  0  0  0  0  0  0  0  0  0  0
   24.8772   25.7766  -14.5441 O   0  0  0  0  0  0  0  0  0  0  0  0
   25.0919   25.9302  -13.8910 O   0  0  0  0  0  0  0  0  0  0  0  0
   16.9685   49.3927  -17.5042 C   0  0  0  0  0  0  0  0  0  0  0  0
   17.4340   49.7289  -16.2110 O   0  0  0  0  0  0  0  0  0  0  0  0
   16.0571   48.1768  -17.4633 C   0  0  0  0  0  0  0  0  0  0  0  0
   16.6911   47.0831  -16.8042 O   0  0  0  0  0  0  0  0  0  0  0  0
   15.6544   47.7298  -18.8385 C   0  0  0  0  0  0  0  0  0  0  0  0
   16.8007   47.5020  -19.6416 O   0  0  0  0  0  0  0  0  0  0  0  0
    9.7636   52.0306   -6.4045 C   0  0  0  0  0  0  0  0  0  0  0  0
   10.5777   53.1636   -6.6946 O   0  0  0  0  0  0  0  0  0  0  0  0
    8.9472   51.6544   -7.6191 C   0  0  0  0  0  0  0  0  0  0  0  0
    7.8827   50.7952   -7.2140 O   0  0  0  0  0  0  0  0  0  0  0  0
    9.7886   51.0017   -8.7007 C   0  0  0  0  0  0  0  0  0  0  0  0
    9.0536   50.7750   -9.9035 O   0  0  0  0  0  0  0  0  0  0  0  0
  1  2  1  0  0  0  0
  1  3  1  0  0  0  0
  3  4  1  0  0  0  0
  3  5  1  0  0  0  0
  5  6  1  0  0  0  0
  7  8  1  0  0  0  0
  7  9  1  0  0  0  0
  9 10  1  0  0  0  0
  9 11  1  0  0  0  0
 11 12  1  0  0  0  0
 13 15  1  0  0  0  0
 13 17  1  0  0  0  0
 14 16  1  0  0  0  0
 14 18  1  0  0  0  0
 17 19  1  0  0  0  0
 17 21  1  0  0  0  0
 18 20  1  0  0  0  0
 18 22  1  0  0  0  0
 21 23  1  0  0  0  0
 22 24  1  0  0  0  0
 25 26  1  0  0  0  0
 25 27  1  0  0  0  0
 27 28  1  0  0  0  0
 27 29  1  0  0  0  0
 29 30  1  0  0  0  0
 31 32  1  0  0  0  0
 31 33  1  0  0  0  0
 33 34  1  0  0  0  0
 33 35  1  0  0  0  0
 35 36  1  0  0  0  0
M  END
$$$$
