7SDA
  PyMOL2.5          3D                             0

 33 35  0  0  0  0  0  0  0  0999 V2000
  -12.2672    5.4512  -32.6532 C   0  0  0  0  0  0  0  0  0  0  0  0
  -12.3779    4.2750  -30.7418 N   0  0  0  0  0  0  0  0  0  0  0  0
  -13.3107    5.9220  -31.7857 C   0  0  0  0  0  0  0  0  0  0  0  0
  -14.1852    7.6975  -33.0709 O   0  0  0  0  0  0  0  0  0  0  0  0
  -13.3517    5.1903  -30.6240 C   0  0  0  0  0  0  0  0  0  0  0  0
  -14.2824    5.4525  -29.6258 C   0  0  0  0  0  0  0  0  0  0  0  0
  -15.2007    6.4807  -29.7828 C   0  0  0  0  0  0  0  0  0  0  0  0
  -15.1708    7.2392  -30.9480 C   0  0  0  0  0  0  0  0  0  0  0  0
  -14.2393    6.9397  -31.9441 C   0  0  0  0  0  0  0  0  0  0  0  0
   -4.6639    1.4367  -32.9934 C   0  0  0  0  0  0  0  0  0  0  0  0
  -10.0228    1.9319  -36.2173 C   0  0  0  0  0  0  0  0  0  0  0  0
   -3.3694    1.7195  -32.4226 O   0  0  0  0  0  0  0  0  0  0  0  0
   -9.7383    2.0046  -37.7107 C   0  0  0  0  0  0  0  0  0  0  0  0
  -11.4169    2.4971  -35.9769 C   0  0  0  0  0  0  0  0  0  0  0  0
  -10.5995    3.5087  -32.2943 C   0  0  0  0  0  0  0  0  0  0  0  0
  -10.0194    0.4700  -35.8197 C   0  0  0  0  0  0  0  0  0  0  0  0
  -10.0247    3.6128  -33.4922 N   0  0  0  0  0  0  0  0  0  0  0  0
   -9.0906    2.6009  -33.9277 C   0  0  0  0  0  0  0  0  0  0  0  0
   -7.7774    2.8915  -33.2631 C   0  0  0  0  0  0  0  0  0  0  0  0
  -13.3993    8.8817  -32.9109 C   0  0  0  0  0  0  0  0  0  0  0  0
   -7.0365    1.8820  -32.8266 N   0  0  0  0  0  0  0  0  0  0  0  0
   -5.7490    2.1508  -32.1846 C   0  0  0  0  0  0  0  0  0  0  0  0
   -5.7267    1.7060  -30.7114 C   0  0  0  0  0  0  0  0  0  0  0  0
   -6.6474    2.5820  -29.8480 C   0  0  0  0  0  0  0  0  0  0  0  0
   -6.1758    4.0298  -29.7732 C   0  0  0  0  0  0  0  0  0  0  0  0
   -6.5173    4.4994  -28.3544 C   0  0  0  0  0  0  0  0  0  0  0  0
   -6.6667    3.2686  -27.5990 N   0  0  0  0  0  0  0  0  0  0  0  0
   -6.7122    2.1967  -28.3918 C   0  0  0  0  0  0  0  0  0  0  0  0
   -6.8074    1.0506  -28.0048 O   0  0  0  0  0  0  0  0  0  0  0  0
  -11.7230    4.3982  -31.9145 C   0  0  0  0  0  0  0  0  0  0  0  0
  -10.2348    2.6797  -31.4771 O   0  0  0  0  0  0  0  0  0  0  0  0
   -8.9317    2.6969  -35.4457 C   0  0  0  0  0  0  0  0  0  0  0  0
   -7.4269    4.0529  -33.1458 O   0  0  0  0  0  0  0  0  0  0  0  0
  1  3  4  0  0  0  0
  1 30  4  0  0  0  0
  3  5  4  0  0  0  0
  3  9  4  0  0  0  0
  2  5  4  0  0  0  0
  5  6  4  0  0  0  0
  6  7  4  0  0  0  0
  7  8  4  0  0  0  0
  8  9  4  0  0  0  0
  4  9  1  0  0  0  0
 10 12  1  0  0  0  0
 11 13  1  0  0  0  0
 11 14  1  0  0  0  0
 15 17  1  0  0  0  0
 15 30  1  0  0  0  0
 15 31  2  0  0  0  0
 11 16  1  0  0  0  0
 17 18  1  0  0  0  0
 18 19  1  0  0  0  0
 18 32  1  0  0  0  0
 19 21  1  0  0  0  0
 19 33  2  0  0  0  0
  4 20  1  0  0  0  0
 10 22  1  0  0  0  0
 21 22  1  0  0  0  0
 22 23  1  0  0  0  0
 23 24  1  0  0  0  0
 24 25  1  0  0  0  0
 24 28  1  0  0  0  0
 25 26  1  0  0  0  0
 26 27  1  0  0  0  0
 27 28  1  0  0  0  0
 28 29  2  0  0  0  0
  2 30  4  0  0  0  0
 11 32  1  0  0  0  0
M  END
$$$$
