7TWL
  PyMOL2.5          3D                             0

172176  0  0  0  0  0  0  0  0999 V2000
   23.8859  -24.8736  -17.2418 N   0  0  0  0  0  0  0  0  0  0  0  0
   25.2280  -24.3050  -16.9749 C   0  0  0  0  0  0  0  0  0  0  0  0
   26.2150  -24.8358  -18.0070 C   0  0  0  0  0  0  0  0  0  0  0  0
   26.2579  -26.0444  -18.2559 O   0  0  0  0  0  0  0  0  0  0  0  0
   25.7988  -24.4889  -15.5587 C   0  0  0  0  0  0  0  0  0  0  0  0
   24.9810  -23.8870  -14.4105 C   0  0  0  0  0  0  0  0  0  0  0  0
   25.7872  -23.9284  -13.1253 C   0  0  0  0  0  0  0  0  0  0  0  0
   24.5626  -22.4469  -14.7031 C   0  0  0  0  0  0  0  0  0  0  0  0
   23.5655  -26.1422  -16.5977 C   0  0  0  0  0  0  0  0  0  0  0  0
   26.9720  -23.9641  -18.6809 N   0  0  0  0  0  0  0  0  0  0  0  0
   27.7776  -24.4561  -19.8313 C   0  0  0  0  0  0  0  0  0  0  0  0
   29.2794  -24.3329  -19.5855 C   0  0  0  0  0  0  0  0  0  0  0  0
   30.0739  -24.3949  -20.5283 O   0  0  0  0  0  0  0  0  0  0  0  0
   27.3436  -23.9141  -21.2202 C   0  0  0  0  0  0  0  0  0  0  0  0
   27.6102  -24.9372  -22.3163 C   0  0  0  0  0  0  0  0  0  0  0  0
   25.8667  -23.5448  -21.2602 C   0  0  0  0  0  0  0  0  0  0  0  0
   27.0316  -22.5358  -18.3401 C   0  0  0  0  0  0  0  0  0  0  0  0
   35.3420    8.9392  -29.0942 N   0  0  0  0  0  0  0  0  0  0  0  0
   35.4668    8.4103  -27.7121 C   0  0  0  0  0  0  0  0  0  0  0  0
   34.3032    8.9313  -26.8809 C   0  0  0  0  0  0  0  0  0  0  0  0
   33.9880   10.1202  -26.9715 O   0  0  0  0  0  0  0  0  0  0  0  0
   36.8113    8.7037  -27.0395 C   0  0  0  0  0  0  0  0  0  0  0  0
   38.0221    8.1742  -27.8093 C   0  0  0  0  0  0  0  0  0  0  0  0
   39.3064    8.5193  -27.0750 C   0  0  0  0  0  0  0  0  0  0  0  0
   37.9207    6.6651  -27.9967 C   0  0  0  0  0  0  0  0  0  0  0  0
   35.9428   10.2309  -29.3953 C   0  0  0  0  0  0  0  0  0  0  0  0
   33.5632    8.0605  -26.1619 N   0  0  0  0  0  0  0  0  0  0  0  0
   32.2929    8.5254  -25.5548 C   0  0  0  0  0  0  0  0  0  0  0  0
   32.3393    8.4897  -24.0218 C   0  0  0  0  0  0  0  0  0  0  0  0
   31.2996    8.5253  -23.3619 O   0  0  0  0  0  0  0  0  0  0  0  0
   31.0194    7.8740  -26.1481 C   0  0  0  0  0  0  0  0  0  0  0  0
   29.8288    8.8235  -26.0819 C   0  0  0  0  0  0  0  0  0  0  0  0
   31.1888    7.4152  -27.5925 C   0  0  0  0  0  0  0  0  0  0  0  0
   33.9443    6.6663  -25.9393 C   0  0  0  0  0  0  0  0  0  0  0  0
  -12.7715  -25.8942  -58.0809 N   0  0  0  0  0  0  0  0  0  0  0  0
  -13.4893  -24.8919  -58.9138 C   0  0  0  0  0  0  0  0  0  0  0  0
  -14.3252  -23.9762  -58.0212 C   0  0  0  0  0  0  0  0  0  0  0  0
  -15.0193  -24.4621  -57.1222 O   0  0  0  0  0  0  0  0  0  0  0  0
  -14.3655  -25.4634  -60.0445 C   0  0  0  0  0  0  0  0  0  0  0  0
  -13.6898  -26.4378  -61.0129 C   0  0  0  0  0  0  0  0  0  0  0  0
  -14.5933  -26.7127  -62.2036 C   0  0  0  0  0  0  0  0  0  0  0  0
  -12.3384  -25.9220  -61.4950 C   0  0  0  0  0  0  0  0  0  0  0  0
  -13.4262  -27.1794  -57.8400 C   0  0  0  0  0  0  0  0  0  0  0  0
  -14.2384  -22.6386  -58.1931 N   0  0  0  0  0  0  0  0  0  0  0  0
  -14.8828  -21.7116  -57.2215 C   0  0  0  0  0  0  0  0  0  0  0  0
  -16.0084  -20.8833  -57.8479 C   0  0  0  0  0  0  0  0  0  0  0  0
  -16.4653  -19.9019  -57.2559 O   0  0  0  0  0  0  0  0  0  0  0  0
  -13.8729  -20.8592  -56.4113 C   0  0  0  0  0  0  0  0  0  0  0  0
  -14.3809  -20.5753  -55.0018 C   0  0  0  0  0  0  0  0  0  0  0  0
  -12.4972  -21.5216  -56.3343 C   0  0  0  0  0  0  0  0  0  0  0  0
  -13.5408  -22.0583  -59.3315 C   0  0  0  0  0  0  0  0  0  0  0  0
    1.3779    6.5005  -71.0086 N   0  0  0  0  0  0  0  0  0  0  0  0
    0.6701    5.4281  -71.7474 C   0  0  0  0  0  0  0  0  0  0  0  0
    1.7089    4.5361  -72.4242 C   0  0  0  0  0  0  0  0  0  0  0  0
    2.6501    5.0592  -73.0294 O   0  0  0  0  0  0  0  0  0  0  0  0
   -0.2943    5.9355  -72.8257 C   0  0  0  0  0  0  0  0  0  0  0  0
   -1.4686    6.7922  -72.3452 C   0  0  0  0  0  0  0  0  0  0  0  0
   -2.4431    7.0120  -73.4934 C   0  0  0  0  0  0  0  0  0  0  0  0
   -2.1932    6.1498  -71.1599 C   0  0  0  0  0  0  0  0  0  0  0  0
    1.7724    7.6854  -71.7613 C   0  0  0  0  0  0  0  0  0  0  0  0
    1.6050    3.1944  -72.3395 N   0  0  0  0  0  0  0  0  0  0  0  0
    2.7305    2.3589  -72.8361 C   0  0  0  0  0  0  0  0  0  0  0  0
    2.3432    1.4700  -74.0167 C   0  0  0  0  0  0  0  0  0  0  0  0
    3.0172    0.4786  -74.3073 O   0  0  0  0  0  0  0  0  0  0  0  0
    3.4854    1.5920  -71.7222 C   0  0  0  0  0  0  0  0  0  0  0  0
    4.9541    1.4269  -72.0869 C   0  0  0  0  0  0  0  0  0  0  0  0
    3.3740    2.2949  -70.3742 C   0  0  0  0  0  0  0  0  0  0  0  0
    0.4324    2.5005  -71.8132 C   0  0  0  0  0  0  0  0  0  0  0  0
   30.5604    1.4830  -26.1496 N   0  0  0  0  0  0  0  0  0  0  0  0
   31.7195    0.9052  -26.8781 C   0  0  0  0  0  0  0  0  0  0  0  0
   31.6850   -0.6201  -26.6801 C   0  0  0  0  0  0  0  0  0  0  0  0
   32.6301   -1.3038  -27.0405 O   0  0  0  0  0  0  0  0  0  0  0  0
   33.0523    1.4539  -26.3354 C   0  0  0  0  0  0  0  0  0  0  0  0
   33.2096    2.9894  -26.3789 C   0  0  0  0  0  0  0  0  0  0  0  0
   34.7836    3.5602  -25.6702 S   0  0  0  0  0  0  0  0  0  0  0  0
   35.9487    3.3446  -27.0435 C   0  0  0  0  0  0  0  0  0  0  0  0
   36.9146    2.2219  -26.7547 C   0  0  0  0  0  0  0  0  0  0  0  0
   36.2702    0.9506  -27.0303 O   0  0  0  0  0  0  0  0  0  0  0  0
   38.1678    2.1933  -27.6240 C   0  0  0  0  0  0  0  0  0  0  0  0
   39.1727    3.0874  -27.1703 O   0  0  0  0  0  0  0  0  0  0  0  0
   38.5790    0.7264  -27.4552 C   0  0  0  0  0  0  0  0  0  0  0  0
   39.2467    0.4081  -26.2545 O   0  0  0  0  0  0  0  0  0  0  0  0
   37.2187    0.0414  -27.5492 C   0  0  0  0  0  0  0  0  0  0  0  0
   30.7214   -1.1938  -26.1495 O   0  0  0  0  0  0  0  0  0  0  0  0
   38.1502   -3.0082  -31.6099 N   0  0  0  0  0  0  0  0  0  0  0  0
   38.6699   -2.9813  -30.3707 C   0  0  0  0  0  0  0  0  0  0  0  0
   38.3799   -2.1609  -29.3574 N   0  0  0  0  0  0  0  0  0  0  0  0
   37.4316   -1.2758  -29.7056 C   0  0  0  0  0  0  0  0  0  0  0  0
   36.8276   -1.1682  -30.9403 C   0  0  0  0  0  0  0  0  0  0  0  0
   37.2240   -2.0719  -31.9416 C   0  0  0  0  0  0  0  0  0  0  0  0
   36.7146   -2.0661  -33.1716 N   0  0  0  0  0  0  0  0  0  0  0  0
   35.9107   -0.1295  -30.9429 N   0  0  0  0  0  0  0  0  0  0  0  0
   35.9828    0.3732  -29.7371 C   0  0  0  0  0  0  0  0  0  0  0  0
   36.8827   -0.2761  -28.9324 N   0  0  0  0  0  0  0  0  0  0  0  0
   27.1209  -17.5951  -22.0387 N   0  0  0  0  0  0  0  0  0  0  0  0
   26.2176  -16.9864  -21.0182 C   0  0  0  0  0  0  0  0  0  0  0  0
   26.3116  -15.4586  -21.1310 C   0  0  0  0  0  0  0  0  0  0  0  0
   25.7929  -14.7287  -20.2613 O   0  0  0  0  0  0  0  0  0  0  0  0
   26.6093  -17.4154  -19.5969 C   0  0  0  0  0  0  0  0  0  0  0  0
   26.6045  -18.9257  -19.3884 C   0  0  0  0  0  0  0  0  0  0  0  0
   27.1538  -19.3464  -17.7187 S   0  0  0  0  0  0  0  0  0  0  0  0
   25.6462  -19.1271  -16.7264 C   0  0  0  0  0  0  0  0  0  0  0  0
   25.7577  -17.9462  -15.7830 C   0  0  0  0  0  0  0  0  0  0  0  0
   25.4741  -16.7291  -16.5151 O   0  0  0  0  0  0  0  0  0  0  0  0
   24.7361  -17.9364  -14.6471 C   0  0  0  0  0  0  0  0  0  0  0  0
   25.0988  -18.8083  -13.5834 O   0  0  0  0  0  0  0  0  0  0  0  0
   24.7270  -16.4432  -14.2904 C   0  0  0  0  0  0  0  0  0  0  0  0
   25.7886  -15.9897  -13.4748 O   0  0  0  0  0  0  0  0  0  0  0  0
   24.7728  -15.8195  -15.6862 C   0  0  0  0  0  0  0  0  0  0  0  0
   26.8977  -14.9392  -22.0930 O   0  0  0  0  0  0  0  0  0  0  0  0
   20.4343  -13.0389  -15.5445 N   0  0  0  0  0  0  0  0  0  0  0  0
   21.6011  -12.9182  -14.8962 C   0  0  0  0  0  0  0  0  0  0  0  0
   22.6886  -13.6838  -14.9656 N   0  0  0  0  0  0  0  0  0  0  0  0
   22.5264  -14.6597  -15.8729 C   0  0  0  0  0  0  0  0  0  0  0  0
   21.3978  -14.8894  -16.6426 C   0  0  0  0  0  0  0  0  0  0  0  0
   20.2977  -14.0289  -16.4553 C   0  0  0  0  0  0  0  0  0  0  0  0
   19.1437  -14.1315  -17.1154 N   0  0  0  0  0  0  0  0  0  0  0  0
   21.5992  -15.9907  -17.4715 N   0  0  0  0  0  0  0  0  0  0  0  0
   22.8170  -16.3834  -17.2022 C   0  0  0  0  0  0  0  0  0  0  0  0
   23.4343  -15.6281  -16.2326 N   0  0  0  0  0  0  0  0  0  0  0  0
   -0.0401   -2.2232  -67.9377 N   0  0  0  0  0  0  0  0  0  0  0  0
   -1.1193   -1.4176  -67.3073 C   0  0  0  0  0  0  0  0  0  0  0  0
   -2.0306   -2.3784  -66.5384 C   0  0  0  0  0  0  0  0  0  0  0  0
   -3.0834   -1.9773  -66.0398 O   0  0  0  0  0  0  0  0  0  0  0  0
   -1.9457   -0.6552  -68.3578 C   0  0  0  0  0  0  0  0  0  0  0  0
   -1.1262    0.3094  -69.2040 C   0  0  0  0  0  0  0  0  0  0  0  0
   -2.1377    1.1695  -70.4448 S   0  0  0  0  0  0  0  0  0  0  0  0
   -2.8698    2.5376  -69.5030 C   0  0  0  0  0  0  0  0  0  0  0  0
   -4.3565    2.3260  -69.3127 C   0  0  0  0  0  0  0  0  0  0  0  0
   -4.5798    1.4057  -68.2151 O   0  0  0  0  0  0  0  0  0  0  0  0
   -5.1527    3.5664  -68.9158 C   0  0  0  0  0  0  0  0  0  0  0  0
   -5.4557    4.3921  -70.0387 O   0  0  0  0  0  0  0  0  0  0  0  0
   -6.3900    2.9021  -68.3180 C   0  0  0  0  0  0  0  0  0  0  0  0
   -7.2903    2.4192  -69.2941 O   0  0  0  0  0  0  0  0  0  0  0  0
   -5.7370    1.7848  -67.4980 C   0  0  0  0  0  0  0  0  0  0  0  0
   -1.7275   -3.5771  -66.4203 O   0  0  0  0  0  0  0  0  0  0  0  0
   -7.3614    3.0090  -62.7535 N   0  0  0  0  0  0  0  0  0  0  0  0
   -8.0167    2.5917  -63.8460 C   0  0  0  0  0  0  0  0  0  0  0  0
   -7.5261    2.2674  -65.0389 N   0  0  0  0  0  0  0  0  0  0  0  0
   -6.1904    2.4470  -65.0869 C   0  0  0  0  0  0  0  0  0  0  0  0
   -5.3816    2.8661  -64.0434 C   0  0  0  0  0  0  0  0  0  0  0  0
   -6.0168    3.1549  -62.8131 C   0  0  0  0  0  0  0  0  0  0  0  0
   -5.3838    3.5984  -61.7288 N   0  0  0  0  0  0  0  0  0  0  0  0
   -4.0524    2.9089  -64.4512 N   0  0  0  0  0  0  0  0  0  0  0  0
   -4.0822    2.5241  -65.7085 C   0  0  0  0  0  0  0  0  0  0  0  0
   -5.3487    2.2209  -66.1566 N   0  0  0  0  0  0  0  0  0  0  0  0
   -9.7758  -17.1007  -59.0637 N   0  0  0  0  0  0  0  0  0  0  0  0
   -8.9687  -17.8591  -60.0610 C   0  0  0  0  0  0  0  0  0  0  0  0
   -8.1574  -16.8624  -60.8920 C   0  0  0  0  0  0  0  0  0  0  0  0
   -7.5935  -17.2571  -61.9145 O   0  0  0  0  0  0  0  0  0  0  0  0
   -9.8205  -18.7056  -61.0227 C   0  0  0  0  0  0  0  0  0  0  0  0
  -10.6628  -19.7955  -60.3745 C   0  0  0  0  0  0  0  0  0  0  0  0
  -11.7334  -20.6690  -61.5817 S   0  0  0  0  0  0  0  0  0  0  0  0
  -10.6072  -21.9588  -62.1560 C   0  0  0  0  0  0  0  0  0  0  0  0
  -10.2680  -21.8187  -63.6238 C   0  0  0  0  0  0  0  0  0  0  0  0
   -9.1637  -20.8903  -63.7680 O   0  0  0  0  0  0  0  0  0  0  0  0
   -9.7714  -23.1031  -64.2827 C   0  0  0  0  0  0  0  0  0  0  0  0
  -10.8180  -23.9776  -64.6882 O   0  0  0  0  0  0  0  0  0  0  0  0
   -8.9306  -22.5467  -65.4334 C   0  0  0  0  0  0  0  0  0  0  0  0
   -9.6471  -22.1802  -66.5923 O   0  0  0  0  0  0  0  0  0  0  0  0
   -8.2612  -21.3553  -64.7515 C   0  0  0  0  0  0  0  0  0  0  0  0
   -8.0446  -15.6758  -60.5762 O   0  0  0  0  0  0  0  0  0  0  0  0
   -3.2504  -22.4346  -65.3600 N   0  0  0  0  0  0  0  0  0  0  0  0
   -4.1991  -22.0777  -66.2327 C   0  0  0  0  0  0  0  0  0  0  0  0
   -5.4778  -21.7971  -66.0069 N   0  0  0  0  0  0  0  0  0  0  0  0
   -5.7824  -21.9292  -64.7074 C   0  0  0  0  0  0  0  0  0  0  0  0
   -4.9132  -22.2897  -63.6936 C   0  0  0  0  0  0  0  0  0  0  0  0
   -3.5731  -22.5504  -64.0506 C   0  0  0  0  0  0  0  0  0  0  0  0
   -2.6227  -22.9268  -63.1931 N   0  0  0  0  0  0  0  0  0  0  0  0
   -5.5815  -22.3187  -62.4787 N   0  0  0  0  0  0  0  0  0  0  0  0
   -6.8133  -21.9866  -62.7743 C   0  0  0  0  0  0  0  0  0  0  0  0
   -7.0025  -21.7164  -64.1072 N   0  0  0  0  0  0  0  0  0  0  0  0
  1  2  1  0  0  0  0
  1  9  1  0  0  0  0
  2  3  1  0  0  0  0
  2  5  1  0  0  0  0
  3  4  2  0  0  0  0
  3 10  1  0  0  0  0
  5  6  1  0  0  0  0
  6  7  1  0  0  0  0
  6  8  1  0  0  0  0
 10 11  1  0  0  0  0
 10 17  1  0  0  0  0
 11 12  1  0  0  0  0
 11 14  1  0  0  0  0
 12 13  2  0  0  0  0
 14 15  1  0  0  0  0
 14 16  1  0  0  0  0
 18 19  1  0  0  0  0
 18 26  1  0  0  0  0
 19 20  1  0  0  0  0
 19 22  1  0  0  0  0
 20 21  2  0  0  0  0
 20 27  1  0  0  0  0
 22 23  1  0  0  0  0
 23 24  1  0  0  0  0
 23 25  1  0  0  0  0
 27 28  1  0  0  0  0
 27 34  1  0  0  0  0
 28 29  1  0  0  0  0
 28 31  1  0  0  0  0
 29 30  2  0  0  0  0
 31 32  1  0  0  0  0
 31 33  1  0  0  0  0
 35 36  1  0  0  0  0
 35 43  1  0  0  0  0
 36 37  1  0  0  0  0
 36 39  1  0  0  0  0
 37 38  2  0  0  0  0
 37 44  1  0  0  0  0
 39 40  1  0  0  0  0
 40 41  1  0  0  0  0
 40 42  1  0  0  0  0
 44 45  1  0  0  0  0
 44 51  1  0  0  0  0
 45 46  1  0  0  0  0
 45 48  1  0  0  0  0
 46 47  2  0  0  0  0
 48 49  1  0  0  0  0
 48 50  1  0  0  0  0
 52 53  1  0  0  0  0
 52 60  1  0  0  0  0
 53 54  1  0  0  0  0
 53 56  1  0  0  0  0
 54 55  2  0  0  0  0
 54 61  1  0  0  0  0
 56 57  1  0  0  0  0
 57 58  1  0  0  0  0
 57 59  1  0  0  0  0
 61 62  1  0  0  0  0
 61 68  1  0  0  0  0
 62 63  1  0  0  0  0
 62 65  1  0  0  0  0
 63 64  2  0  0  0  0
 65 66  1  0  0  0  0
 65 67  1  0  0  0  0
 69 70  1  0  0  0  0
 70 71  1  0  0  0  0
 70 73  1  0  0  0  0
 71 72  4  0  0  0  0
 71 84  4  0  0  0  0
 73 74  1  0  0  0  0
 74 75  1  0  0  0  0
 75 76  1  0  0  0  0
 76 77  1  0  0  0  0
 77 78  1  0  0  0  0
 77 79  1  0  0  0  0
 78 83  1  0  0  0  0
 79 80  1  0  0  0  0
 79 81  1  0  0  0  0
 81 82  1  0  0  0  0
 81 83  1  0  0  0  0
 83 94  1  0  0  0  0
 85 86  4  0  0  0  0
 86 87  4  0  0  0  0
 87 88  4  0  0  0  0
 88 89  4  0  0  0  0
 89 90  4  0  0  0  0
 85 90  4  0  0  0  0
 90 91  1  0  0  0  0
 89 92  4  0  0  0  0
 92 93  4  0  0  0  0
 88 94  4  0  0  0  0
 93 94  4  0  0  0  0
 95 96  1  0  0  0  0
 96 97  1  0  0  0  0
 96 99  1  0  0  0  0
 97 98  4  0  0  0  0
 97110  4  0  0  0  0
 99100  1  0  0  0  0
100101  1  0  0  0  0
101102  1  0  0  0  0
102103  1  0  0  0  0
103104  1  0  0  0  0
103105  1  0  0  0  0
104109  1  0  0  0  0
105106  1  0  0  0  0
105107  1  0  0  0  0
107108  1  0  0  0  0
107109  1  0  0  0  0
109120  1  0  0  0  0
111112  4  0  0  0  0
112113  4  0  0  0  0
113114  4  0  0  0  0
114115  4  0  0  0  0
115116  4  0  0  0  0
111116  4  0  0  0  0
116117  1  0  0  0  0
115118  4  0  0  0  0
118119  4  0  0  0  0
114120  4  0  0  0  0
119120  4  0  0  0  0
121122  1  0  0  0  0
122123  1  0  0  0  0
122125  1  0  0  0  0
123124  4  0  0  0  0
123136  4  0  0  0  0
125126  1  0  0  0  0
126127  1  0  0  0  0
127128  1  0  0  0  0
128129  1  0  0  0  0
129130  1  0  0  0  0
129131  1  0  0  0  0
130135  1  0  0  0  0
131132  1  0  0  0  0
131133  1  0  0  0  0
133134  1  0  0  0  0
133135  1  0  0  0  0
135146  1  0  0  0  0
137138  4  0  0  0  0
138139  4  0  0  0  0
139140  4  0  0  0  0
140141  4  0  0  0  0
141142  4  0  0  0  0
137142  4  0  0  0  0
142143  1  0  0  0  0
141144  4  0  0  0  0
144145  4  0  0  0  0
140146  4  0  0  0  0
145146  4  0  0  0  0
147148  1  0  0  0  0
148149  1  0  0  0  0
148151  1  0  0  0  0
149150  4  0  0  0  0
149162  4  0  0  0  0
151152  1  0  0  0  0
152153  1  0  0  0  0
153154  1  0  0  0  0
154155  1  0  0  0  0
155156  1  0  0  0  0
155157  1  0  0  0  0
156161  1  0  0  0  0
157158  1  0  0  0  0
157159  1  0  0  0  0
159160  1  0  0  0  0
159161  1  0  0  0  0
161172  1  0  0  0  0
163164  4  0  0  0  0
164165  4  0  0  0  0
165166  4  0  0  0  0
166167  4  0  0  0  0
167168  4  0  0  0  0
163168  4  0  0  0  0
168169  1  0  0  0  0
167170  4  0  0  0  0
170171  4  0  0  0  0
166172  4  0  0  0  0
171172  4  0  0  0  0
M  END
$$$$
