7VW4
  PyMOL2.5          3D                             0

 43 48  0  0  0  0  0  0  0  0999 V2000
  -19.1251  -18.8562   37.6403 C   0  0  0  0  0  0  0  0  0  0  0  0
  -15.2609  -10.8860   33.4416 C   0  0  0  0  0  0  0  0  0  0  0  0
   -9.3757  -14.4331   37.4789 C   0  0  0  0  0  0  0  0  0  0  0  0
  -14.3919  -20.0574   39.7819 C   0  0  0  0  0  0  0  0  0  0  0  0
  -16.6210  -16.3187   36.5992 N   0  0  0  0  0  0  0  0  0  0  0  0
  -20.1226  -18.3575   38.6871 C   0  0  0  0  0  0  0  0  0  0  0  0
  -15.2810  -10.8350   32.1136 C   0  0  0  0  0  0  0  0  0  0  0  0
   -8.3294  -14.1948   36.6961 C   0  0  0  0  0  0  0  0  0  0  0  0
  -14.0295  -21.2252   38.8649 C   0  0  0  0  0  0  0  0  0  0  0  0
  -15.5085  -13.9679   35.4777 N   0  0  0  0  0  0  0  0  0  0  0  0
  -19.4134  -17.5066   39.7056 C   0  0  0  0  0  0  0  0  0  0  0  0
  -15.0896  -21.3887   37.8062 C   0  0  0  0  0  0  0  0  0  0  0  0
  -14.1583  -16.8475   37.8614 N   0  0  0  0  0  0  0  0  0  0  0  0
  -16.1783  -18.2381   38.0709 C   0  0  0  0  0  0  0  0  0  0  0  0
  -17.8236  -14.7574   35.1447 C   0  0  0  0  0  0  0  0  0  0  0  0
  -13.4552  -12.5859   35.2981 C   0  0  0  0  0  0  0  0  0  0  0  0
  -11.8177  -16.1182   38.1679 C   0  0  0  0  0  0  0  0  0  0  0  0
  -20.2241  -16.5971   35.7330 C   0  0  0  0  0  0  0  0  0  0  0  0
  -18.0796  -12.3225   33.3627 C   0  0  0  0  0  0  0  0  0  0  0  0
  -10.4299  -12.0780   35.5707 C   0  0  0  0  0  0  0  0  0  0  0  0
  -11.5619  -18.6795   39.8537 C   0  0  0  0  0  0  0  0  0  0  0  0
  -16.9783  -17.4491   37.2874 C   0  0  0  0  0  0  0  0  0  0  0  0
  -16.7417  -13.8932   34.9556 C   0  0  0  0  0  0  0  0  0  0  0  0
  -12.6125  -13.3866   36.0499 C   0  0  0  0  0  0  0  0  0  0  0  0
  -12.9103  -16.9644   38.3399 C   0  0  0  0  0  0  0  0  0  0  0  0
  -19.7145  -16.2991   39.8226 O   0  0  0  0  0  0  0  0  0  0  0  0
  -14.7819  -21.3055   36.5967 O   0  0  0  0  0  0  0  0  0  0  0  0
  -18.3436  -17.7037   37.0669 C   0  0  0  0  0  0  0  0  0  0  0  0
  -16.8515  -12.7498   34.1243 C   0  0  0  0  0  0  0  0  0  0  0  0
  -11.2308  -13.1925   36.1990 C   0  0  0  0  0  0  0  0  0  0  0  0
  -12.7924  -18.1853   39.1411 C   0  0  0  0  0  0  0  0  0  0  0  0
  -18.5293  -18.0076   40.4316 O   0  0  0  0  0  0  0  0  0  0  0  0
  -16.2762  -21.6095   38.1337 O   0  0  0  0  0  0  0  0  0  0  0  0
  -18.8141  -16.7332   36.2452 C   0  0  0  0  0  0  0  0  0  0  0  0
  -15.6441  -12.1218   34.1463 C   0  0  0  0  0  0  0  0  0  0  0  0
  -10.7620  -14.2073   37.0212 C   0  0  0  0  0  0  0  0  0  0  0  0
  -13.9980  -18.7702   39.1138 C   0  0  0  0  0  0  0  0  0  0  0  0
  -17.7400  -15.8698   35.9524 C   0  0  0  0  0  0  0  0  0  0  0  0
  -14.7795  -12.9303   35.0335 C   0  0  0  0  0  0  0  0  0  0  0  0
  -11.8815  -15.0137   37.3637 C   0  0  0  0  0  0  0  0  0  0  0  0
  -14.8538  -17.9104   38.2952 C   0  0  0  0  0  0  0  0  0  0  0  0
  -12.9920  -14.4893   36.7606 N   0  0  0  0  0  0  0  0  0  0  0  0
  -14.8299  -15.4805   36.7750 Fe  0  0  0  0  0  0  0  0  0  0  0  0
  1  6  1  0  0  0  0
  2  7  1  0  0  0  0
  3  8  1  0  0  0  0
  4  9  1  0  0  0  0
  5 43  1  0  0  0  0
  6 11  1  0  0  0  0
  9 12  1  0  0  0  0
 11 26  4  0  0  0  0
 11 32  4  0  0  0  0
 12 27  4  0  0  0  0
 12 33  4  0  0  0  0
 13 43  1  0  0  0  0
 14 22  4  0  0  0  0
 14 41  4  0  0  0  0
 15 23  1  0  0  0  0
 15 38  1  0  0  0  0
 16 24  1  0  0  0  0
 16 39  1  0  0  0  0
 17 25  1  0  0  0  0
 17 40  1  0  0  0  0
  5 22  4  0  0  0  0
 22 28  4  0  0  0  0
 10 23  4  0  0  0  0
 23 29  4  0  0  0  0
 24 30  4  0  0  0  0
 24 42  4  0  0  0  0
 13 25  4  0  0  0  0
 25 31  4  0  0  0  0
  1 28  1  0  0  0  0
 28 34  4  0  0  0  0
 19 29  1  0  0  0  0
 29 35  4  0  0  0  0
 20 30  1  0  0  0  0
 30 36  4  0  0  0  0
 21 31  1  0  0  0  0
 31 37  4  0  0  0  0
 18 34  1  0  0  0  0
 34 38  4  0  0  0  0
  2 35  1  0  0  0  0
 35 39  4  0  0  0  0
  3 36  1  0  0  0  0
 36 40  4  0  0  0  0
  4 37  1  0  0  0  0
 37 41  4  0  0  0  0
  5 38  4  0  0  0  0
 10 39  4  0  0  0  0
 40 42  4  0  0  0  0
 13 41  4  0  0  0  0
M  END
$$$$
