7Z2J
  PyMOL2.5          3D                             0

 26 28  0  0  0  0  0  0  0  0999 V2000
   20.2930   -6.9667   12.7307 N   0  0  0  0  0  0  0  0  0  0  0  0
   20.4431   -8.3508   12.1990 C   0  0  0  0  0  0  0  0  0  0  0  0
   20.8841   -9.2817   13.3314 C   0  0  0  0  0  0  0  0  0  0  0  0
   21.2445   -8.7452   14.3937 O   0  0  0  0  0  0  0  0  0  0  0  0
   21.4223   -8.3922   11.0201 C   0  0  0  0  0  0  0  0  0  0  0  0
   22.8520   -8.0005   11.3761 C   0  0  0  0  0  0  0  0  0  0  0  0
   24.0046   -7.9872    9.9660 S   0  0  0  0  0  0  0  0  0  0  0  0
   23.9915   -6.2327    9.4962 C   0  0  0  0  0  0  0  0  0  0  0  0
   22.9884   -5.9033    8.4069 C   0  0  0  0  0  0  0  0  0  0  0  0
   22.9445   -4.4863    8.1197 O   0  0  0  0  0  0  0  0  0  0  0  0
   23.2244   -6.6141    7.0655 C   0  0  0  0  0  0  0  0  0  0  0  0
   22.0584   -7.3610    6.7242 O   0  0  0  0  0  0  0  0  0  0  0  0
   23.4896   -5.4579    6.0894 C   0  0  0  0  0  0  0  0  0  0  0  0
   23.0341   -5.7097    4.7639 O   0  0  0  0  0  0  0  0  0  0  0  0
   22.6871   -4.3419    6.7395 C   0  0  0  0  0  0  0  0  0  0  0  0
   20.8629  -10.5155   13.1026 O   0  0  0  0  0  0  0  0  0  0  0  0
   21.0939    0.5118    5.9741 N   0  0  0  0  0  0  0  0  0  0  0  0
   20.4432   -0.5887    6.3680 C   0  0  0  0  0  0  0  0  0  0  0  0
   20.9219   -1.8246    6.5462 N   0  0  0  0  0  0  0  0  0  0  0  0
   22.2260   -1.8841    6.2682 C   0  0  0  0  0  0  0  0  0  0  0  0
   23.0302   -0.8348    5.8473 C   0  0  0  0  0  0  0  0  0  0  0  0
   22.4113    0.4228    5.6946 C   0  0  0  0  0  0  0  0  0  0  0  0
   23.0444    1.5212    5.2493 N   0  0  0  0  0  0  0  0  0  0  0  0
   24.3315   -1.2694    5.6333 N   0  0  0  0  0  0  0  0  0  0  0  0
   24.2841   -2.5475    5.9234 C   0  0  0  0  0  0  0  0  0  0  0  0
   23.0454   -2.9873    6.3166 N   0  0  0  0  0  0  0  0  0  0  0  0
  1  2  1  0  0  0  0
  2  3  1  0  0  0  0
  2  5  1  0  0  0  0
  3  4  4  0  0  0  0
  3 16  4  0  0  0  0
  5  6  1  0  0  0  0
  6  7  1  0  0  0  0
  7  8  1  0  0  0  0
  8  9  1  0  0  0  0
  9 10  1  0  0  0  0
  9 11  1  0  0  0  0
 10 15  1  0  0  0  0
 11 12  1  0  0  0  0
 11 13  1  0  0  0  0
 13 14  1  0  0  0  0
 13 15  1  0  0  0  0
 15 26  1  0  0  0  0
 17 18  4  0  0  0  0
 18 19  4  0  0  0  0
 19 20  4  0  0  0  0
 20 21  4  0  0  0  0
 21 22  4  0  0  0  0
 17 22  4  0  0  0  0
 22 23  1  0  0  0  0
 21 24  4  0  0  0  0
 24 25  4  0  0  0  0
 20 26  4  0  0  0  0
 25 26  4  0  0  0  0
M  END
$$$$
