7Z3X
  PyMOL2.5          3D                             0

 16 12  0  0  0  0  0  0  0  0999 V2000
  -27.2434   11.7512   40.1910 C   0  0  0  0  0  0  0  0  0  0  0  0
  -27.4307   10.7575   39.1852 O   0  0  0  0  0  0  0  0  0  0  0  0
  -25.9990   11.3402   40.9542 C   0  0  0  0  0  0  0  0  0  0  0  0
  -24.8778   11.8991   40.2552 O   0  0  0  0  0  0  0  0  0  0  0  0
   13.3045    2.4105   41.0295 C   0  0  0  0  0  0  0  0  0  0  0  0
   13.3134    2.8969   42.3740 O   0  0  0  0  0  0  0  0  0  0  0  0
   14.7383    2.3981   40.5072 C   0  0  0  0  0  0  0  0  0  0  0  0
   14.7252    2.0938   39.1114 O   0  0  0  0  0  0  0  0  0  0  0  0
   -6.2514   19.9445   61.3783 C   0  0  0  0  0  0  0  0  0  0  0  0
   -5.8379   18.6920   61.9345 O   0  0  0  0  0  0  0  0  0  0  0  0
   -5.4892   20.2203   60.0910 C   0  0  0  0  0  0  0  0  0  0  0  0
   -5.4582   21.6339   59.8514 O   0  0  0  0  0  0  0  0  0  0  0  0
   16.8792   27.0726   42.0150 C   0  0  0  0  0  0  0  0  0  0  0  0
   17.7515   27.7588   41.1018 O   0  0  0  0  0  0  0  0  0  0  0  0
   17.4582   27.0598   43.4182 C   0  0  0  0  0  0  0  0  0  0  0  0
   17.0765   28.1587   44.2416 O   0  0  0  0  0  0  0  0  0  0  0  0
  1  2  1  0  0  0  0
  1  3  1  0  0  0  0
  3  4  1  0  0  0  0
  5  6  1  0  0  0  0
  5  7  1  0  0  0  0
  7  8  1  0  0  0  0
  9 10  1  0  0  0  0
  9 11  1  0  0  0  0
 11 12  1  0  0  0  0
 13 14  1  0  0  0  0
 13 15  1  0  0  0  0
 15 16  1  0  0  0  0
M  END
$$$$
