7Z5Y
  PyMOL2.5          3D                             0

160169  0  0  0  0  0  0  0  0999 V2000
  -27.5883  -38.5186   39.7714 P   0  0  0  0  0  0  0  0  0  0  0  0
  -29.7009  -36.4453   35.3449 C   0  0  0  0  0  0  0  0  0  0  0  0
  -26.8188  -37.3699   37.4779 C   0  0  0  0  0  0  0  0  0  0  0  0
  -27.4859  -37.2774   38.7406 O   0  0  0  0  0  0  0  0  0  0  0  0
  -27.6043  -36.5768   36.4288 C   0  0  0  0  0  0  0  0  0  0  0  0
  -28.9845  -36.9436   36.4740 O   0  0  0  0  0  0  0  0  0  0  0  0
  -27.5314  -35.0731   36.6616 C   0  0  0  0  0  0  0  0  0  0  0  0
  -26.1665  -34.6350   36.6199 O   0  0  0  0  0  0  0  0  0  0  0  0
  -28.3188  -34.3278   35.5916 C   0  0  0  0  0  0  0  0  0  0  0  0
  -29.7071  -34.9149   35.3182 C   0  0  0  0  0  0  0  0  0  0  0  0
  -33.4964  -31.3777   35.6572 N   0  0  0  0  0  0  0  0  0  0  0  0
  -32.6559  -31.6808   34.6548 C   0  0  0  0  0  0  0  0  0  0  0  0
  -31.7203  -32.6403   34.7393 N   0  0  0  0  0  0  0  0  0  0  0  0
  -31.5722  -33.3728   35.8709 C   0  0  0  0  0  0  0  0  0  0  0  0
  -32.4497  -33.1070   37.0209 C   0  0  0  0  0  0  0  0  0  0  0  0
  -33.4594  -32.0276   36.8437 C   0  0  0  0  0  0  0  0  0  0  0  0
  -34.3232  -31.6917   37.8347 N   0  0  0  0  0  0  0  0  0  0  0  0
  -32.0745  -33.9718   37.9931 N   0  0  0  0  0  0  0  0  0  0  0  0
  -31.0465  -34.7228   37.5055 C   0  0  0  0  0  0  0  0  0  0  0  0
  -30.7461  -34.3573   36.2370 N   0  0  0  0  0  0  0  0  0  0  0  0
  -28.5358  -39.4413   39.0337 O   0  0  0  0  0  0  0  0  0  0  0  0
  -28.1728  -37.9078   41.0275 O   0  5  0  0  0  0  0  0  0  0  0  0
  -26.1820  -39.0578   39.9329 O   0  0  0  0  0  0  0  0  0  0  0  0
  -25.6408  -33.3777   37.3780 P   0  0  0  0  0  0  0  0  0  0  0  0
  -29.3545  -30.1921   34.9737 C   0  0  0  0  0  0  0  0  0  0  0  0
  -25.9209  -31.2718   35.7514 C   0  0  0  0  0  0  0  0  0  0  0  0
  -26.3525  -32.0091   36.8970 O   0  0  0  0  0  0  0  0  0  0  0  0
  -27.0214  -30.2724   35.4158 C   0  0  0  0  0  0  0  0  0  0  0  0
  -28.2613  -30.9726   35.4558 O   0  0  0  0  0  0  0  0  0  0  0  0
  -27.0990  -29.1453   36.4404 C   0  0  0  0  0  0  0  0  0  0  0  0
  -25.8727  -28.4026   36.4598 O   0  0  0  0  0  0  0  0  0  0  0  0
  -28.2446  -28.1943   36.1165 C   0  0  0  0  0  0  0  0  0  0  0  0
  -29.5622  -28.9047   35.7790 C   0  0  0  0  0  0  0  0  0  0  0  0
  -30.3852  -29.1502   36.9738 N   0  0  0  0  0  0  0  0  0  0  0  0
  -31.2226  -28.1089   37.4249 C   0  0  0  0  0  0  0  0  0  0  0  0
  -31.2156  -27.0258   36.8021 O   0  0  0  0  0  0  0  0  0  0  0  0
  -32.0171  -28.2693   38.5090 N   0  0  0  0  0  0  0  0  0  0  0  0
  -32.0105  -29.4479   39.1714 C   0  0  0  0  0  0  0  0  0  0  0  0
  -32.8026  -29.6126   40.2574 N   0  0  0  0  0  0  0  0  0  0  0  0
  -31.1910  -30.4897   38.7409 C   0  0  0  0  0  0  0  0  0  0  0  0
  -30.3768  -30.3246   37.6222 C   0  0  0  0  0  0  0  0  0  0  0  0
  -24.1506  -33.2719   37.1225 O   0  5  0  0  0  0  0  0  0  0  0  0
  -26.1499  -33.6761   38.7739 O   0  0  0  0  0  0  0  0  0  0  0  0
  -24.9366  -27.8645   37.5853 P   0  0  0  0  0  0  0  0  0  0  0  0
  -29.3801  -24.5217   37.9145 C   0  0  0  0  0  0  0  0  0  0  0  0
  -25.7578  -25.3344   37.5705 C   0  0  0  0  0  0  0  0  0  0  0  0
  -25.9876  -26.6922   37.9604 O   0  0  0  0  0  0  0  0  0  0  0  0
  -26.9609  -24.4561   37.9206 C   0  0  0  0  0  0  0  0  0  0  0  0
  -28.1504  -25.1792   37.5853 O   0  0  0  0  0  0  0  0  0  0  0  0
  -26.9495  -24.0707   39.4044 C   0  0  0  0  0  0  0  0  0  0  0  0
  -25.8554  -23.1893   39.6913 O   0  0  0  0  0  0  0  0  0  0  0  0
  -28.2599  -23.4135   39.8381 C   0  0  0  0  0  0  0  0  0  0  0  0
  -29.4815  -24.2377   39.4182 C   0  0  0  0  0  0  0  0  0  0  0  0
  -29.6268  -25.4375   40.2867 N   0  0  0  0  0  0  0  0  0  0  0  0
  -30.5159  -25.3608   41.3867 C   0  0  0  0  0  0  0  0  0  0  0  0
  -31.1550  -24.2949   41.5847 O   0  0  0  0  0  0  0  0  0  0  0  0
  -30.6856  -26.4232   42.2181 N   0  0  0  0  0  0  0  0  0  0  0  0
  -30.0130  -27.5772   42.0084 C   0  0  0  0  0  0  0  0  0  0  0  0
  -30.1929  -28.6306   42.8448 N   0  0  0  0  0  0  0  0  0  0  0  0
  -29.1292  -27.6758   40.9365 C   0  0  0  0  0  0  0  0  0  0  0  0
  -28.9584  -26.5895   40.0835 C   0  0  0  0  0  0  0  0  0  0  0  0
  -23.5833  -27.2335   37.3233 O   0  5  0  0  0  0  0  0  0  0  0  0
  -25.0518  -28.9718   38.6148 O   0  0  0  0  0  0  0  0  0  0  0  0
  -24.9511  -23.6172   40.8882 P   0  0  0  0  0  0  0  0  0  0  0  0
  -23.0344  -21.8114   40.9365 C   0  0  0  0  0  0  0  0  0  0  0  0
  -23.7472  -22.7984   40.1640 O   0  0  0  0  0  0  0  0  0  0  0  0
  -21.7400  -21.4557   40.2485 C   0  0  0  0  0  0  0  0  0  0  0  0
  -21.2378  -22.6005   39.5226 O   0  0  0  0  0  0  0  0  0  0  0  0
  -21.8285  -20.3317   39.2167 C   0  0  0  0  0  0  0  0  0  0  0  0
  -20.8884  -19.3064   39.5236 O   0  0  0  0  0  0  0  0  0  0  0  0
  -21.4507  -21.0644   37.9228 C   0  0  0  0  0  0  0  0  0  0  0  0
  -20.4638  -22.1330   38.4328 C   0  0  0  0  0  0  0  0  0  0  0  0
  -17.1813  -24.3612   35.1573 N   0  0  0  0  0  0  0  0  0  0  0  0
  -20.9138  -20.1719   36.8789 N   0  0  0  0  0  0  0  0  0  0  0  0
  -17.0001  -23.4469   36.1165 C   0  0  0  0  0  0  0  0  0  0  0  0
  -21.7420  -19.4959   36.0572 N   0  0  0  0  0  0  0  0  0  0  0  0
  -17.8916  -22.9567   36.9851 N   0  0  0  0  0  0  0  0  0  0  0  0
  -20.9887  -18.7673   35.2699 N   0  0  0  0  0  0  0  0  0  0  0  0
  -19.0965  -23.5180   36.8133 C   0  0  0  0  0  0  0  0  0  0  0  0
  -19.6815  -18.9834   35.5790 C   0  0  0  0  0  0  0  0  0  0  0  0
  -19.4311  -24.4909   35.8834 C   0  0  0  0  0  0  0  0  0  0  0  0
  -19.6268  -19.8790   36.6086 C   0  0  0  0  0  0  0  0  0  0  0  0
  -18.4115  -24.9070   35.0002 C   0  0  0  0  0  0  0  0  0  0  0  0
  -18.5819  -18.3257   34.8271 C   0  0  0  0  0  0  0  0  0  0  0  0
  -18.6105  -25.7440   33.9705 N   0  0  0  0  0  0  0  0  0  0  0  0
  -18.3254  -19.1179   33.5575 C   0  0  0  0  0  0  0  0  0  0  0  0
  -20.7716  -24.8353   35.9970 N   0  0  0  0  0  0  0  0  0  0  0  0
  -21.2112  -24.0620   36.9607 C   0  0  0  0  0  0  0  0  0  0  0  0
  -20.2594  -23.2256   37.4854 N   0  0  0  0  0  0  0  0  0  0  0  0
  -24.3412  -24.7852   41.6224 O   0  0  0  0  0  0  0  0  0  0  0  0
  -25.7156  -22.6246   41.8083 O   0  5  0  0  0  0  0  0  0  0  0  0
   -6.0994  -15.3078   37.2713 P   0  0  0  0  0  0  0  0  0  0  0  0
   -4.9638  -15.5755   39.9331 P   0  0  0  0  0  0  0  0  0  0  0  0
   -4.3391  -15.9709   35.4476 C   0  0  0  0  0  0  0  0  0  0  0  0
   -5.5696  -16.2559   36.1394 O   0  0  0  0  0  0  0  0  0  0  0  0
   -4.3754  -16.7857   34.1849 C   0  0  0  0  0  0  0  0  0  0  0  0
   -3.2774  -16.4210   33.3135 O   0  0  0  0  0  0  0  0  0  0  0  0
   -4.2819  -18.2994   34.4074 C   0  0  0  0  0  0  0  0  0  0  0  0
   -5.3306  -18.9135   33.6729 O   0  0  0  0  0  0  0  0  0  0  0  0
   -2.9104  -18.6487   33.8232 C   0  0  0  0  0  0  0  0  0  0  0  0
   -2.8542  -19.9731   33.3038 O   0  0  0  0  0  0  0  0  0  0  0  0
   -2.8101  -17.6040   32.7142 C   0  0  0  0  0  0  0  0  0  0  0  0
   -1.4373  -17.3976   32.2262 N   0  0  0  0  0  0  0  0  0  0  0  0
   -6.2496  -13.9595   36.6783 O   0  5  0  0  0  0  0  0  0  0  0  0
   -5.8933  -14.4803   40.4536 O   0  5  0  0  0  0  0  0  0  0  0  0
   -1.2328  -17.3909   30.8468 C   0  0  0  0  0  0  0  0  0  0  0  0
   -2.1458  -17.5042   30.0313 O   0  0  0  0  0  0  0  0  0  0  0  0
   -7.3308  -15.9077   37.9491 O   0  0  0  0  0  0  0  0  0  0  0  0
    0.0797  -17.2342   30.4584 N   0  0  0  0  0  0  0  0  0  0  0  0
   -4.9159  -15.3043   38.3698 O   0  0  0  0  0  0  0  0  0  0  0  0
   -3.5462  -15.2334   40.3883 O   0  0  0  0  0  0  0  0  0  0  0  0
    1.1804  -17.0773   31.2862 C   0  0  0  0  0  0  0  0  0  0  0  0
    2.3151  -16.9383   30.7837 O   0  0  0  0  0  0  0  0  0  0  0  0
    0.8852  -17.1006   32.6905 C   0  0  0  0  0  0  0  0  0  0  0  0
   -0.3909  -17.2485   33.1061 C   0  0  0  0  0  0  0  0  0  0  0  0
   -4.8520  -18.2618   39.9594 C   0  0  0  0  0  0  0  0  0  0  0  0
   -5.4896  -17.0314   40.0599 O   0  0  0  0  0  0  0  0  0  0  0  0
   -5.9790  -19.2748   39.7546 C   0  0  0  0  0  0  0  0  0  0  0  0
   -6.7103  -18.8834   38.5646 N   0  0  0  0  0  0  0  0  0  0  0  0
   -6.8620  -19.3193   41.0026 C   0  0  0  0  0  0  0  0  0  0  0  0
   -7.7852  -20.4050   40.8699 O   0  0  0  0  0  0  0  0  0  0  0  0
   -6.0194  -19.4610   42.2660 C   0  0  0  0  0  0  0  0  0  0  0  0
   -6.8368  -19.3824   43.4278 O   0  0  0  0  0  0  0  0  0  0  0  0
   -5.0288  -18.3029   42.3214 C   0  0  0  0  0  0  0  0  0  0  0  0
   -4.1540  -18.4151   41.1843 O   0  0  0  0  0  0  0  0  0  0  0  0
   -4.1552  -18.2924   43.5533 C   0  0  0  0  0  0  0  0  0  0  0  0
   -3.1973  -19.3346   43.5179 O   0  0  0  0  0  0  0  0  0  0  0  0
   -6.5880  -19.5213   37.3923 C   0  0  0  0  0  0  0  0  0  0  0  0
   -5.8701  -20.5102   37.2681 O   0  0  0  0  0  0  0  0  0  0  0  0
   -7.3704  -18.9674   36.2385 C   0  0  0  0  0  0  0  0  0  0  0  0
   -9.0625  -20.0651   40.3153 C   0  0  0  0  0  0  0  0  0  0  0  0
   -9.2562  -20.7021   38.9356 C   0  0  0  0  0  0  0  0  0  0  0  0
   -9.9286  -20.0651   38.0870 O   0  0  0  0  0  0  0  0  0  0  0  0
  -10.1244  -20.5157   41.2945 C   0  0  0  0  0  0  0  0  0  0  0  0
  -10.8634  -23.3684   37.7112 N   0  0  0  0  0  0  0  0  0  0  0  0
  -12.1978  -23.7688   37.2900 C   0  0  0  0  0  0  0  0  0  0  0  0
  -12.3694  -25.2676   37.3784 C   0  0  0  0  0  0  0  0  0  0  0  0
  -11.8268  -25.9256   38.2736 O   0  0  0  0  0  0  0  0  0  0  0  0
  -13.2178  -23.0337   38.1555 C   0  0  0  0  0  0  0  0  0  0  0  0
  -13.1485  -21.5300   37.9045 C   0  0  0  0  0  0  0  0  0  0  0  0
  -13.8365  -21.1388   36.6047 C   0  0  0  0  0  0  0  0  0  0  0  0
  -13.8255  -21.8295   35.5888 O   0  0  0  0  0  0  0  0  0  0  0  0
  -13.1302  -25.8904   36.4699 O   0  0  0  0  0  0  0  0  0  0  0  0
  -12.2610  -17.7161   35.1564 N   0  0  0  0  0  0  0  0  0  0  0  0
  -11.6478  -16.3993   35.0154 C   0  0  0  0  0  0  0  0  0  0  0  0
  -11.9762  -15.5029   36.2174 C   0  0  0  0  0  0  0  0  0  0  0  0
  -11.9658  -15.9541   37.3671 O   0  0  0  0  0  0  0  0  0  0  0  0
  -10.1464  -16.5258   34.8502 C   0  0  0  0  0  0  0  0  0  0  0  0
  -12.2480  -14.2274   35.9508 N   0  0  0  0  0  0  0  0  0  0  0  0
  -12.6178  -13.2806   37.0114 C   0  0  0  0  0  0  0  0  0  0  0  0
  -11.5366  -13.1189   38.1028 C   0  0  0  0  0  0  0  0  0  0  0  0
  -11.8659  -12.9654   39.2953 O   0  0  0  0  0  0  0  0  0  0  0  0
  -12.9881  -11.9209   36.4141 C   0  0  0  0  0  0  0  0  0  0  0  0
  -10.3235  -13.1347   37.8355 O   0  0  0  0  0  0  0  0  0  0  0  0
  -12.1509    7.9329   23.9435 C   0  0  0  0  0  0  0  0  0  0  0  0
  -11.6502    7.4332   25.1673 O   0  0  0  0  0  0  0  0  0  0  0  0
  -12.2655    6.7103   22.9785 C   0  0  0  0  0  0  0  0  0  0  0  0
  -13.0522    7.0374   21.8772 O   0  0  0  0  0  0  0  0  0  0  0  0
  -10.7628    6.3998   22.5554 C   0  0  0  0  0  0  0  0  0  0  0  0
  -10.7728    5.2831   21.6812 O   0  0  0  0  0  0  0  0  0  0  0  0
  1  4  1  0  0  0  0
  1 21  1  0  0  0  0
  1 22  1  0  0  0  0
  1 23  2  0  0  0  0
  3  5  1  0  0  0  0
  3  4  1  0  0  0  0
  5  6  1  0  0  0  0
  5  7  1  0  0  0  0
  2  6  1  0  0  0  0
  7  8  1  0  0  0  0
  7  9  1  0  0  0  0
  8 24  1  0  0  0  0
  9 10  1  0  0  0  0
  2 10  1  0  0  0  0
 10 20  1  0  0  0  0
 11 12  4  0  0  0  0
 12 13  4  0  0  0  0
 13 14  4  0  0  0  0
 14 15  4  0  0  0  0
 15 16  4  0  0  0  0
 11 16  4  0  0  0  0
 16 17  1  0  0  0  0
 15 18  4  0  0  0  0
 18 19  4  0  0  0  0
 14 20  4  0  0  0  0
 19 20  4  0  0  0  0
 24 27  1  0  0  0  0
 24 42  1  0  0  0  0
 24 43  2  0  0  0  0
 26 28  1  0  0  0  0
 26 27  1  0  0  0  0
 28 29  1  0  0  0  0
 28 30  1  0  0  0  0
 25 29  1  0  0  0  0
 30 31  1  0  0  0  0
 30 32  1  0  0  0  0
 31 44  1  0  0  0  0
 32 33  1  0  0  0  0
 25 33  1  0  0  0  0
 33 34  1  0  0  0  0
 34 35  4  0  0  0  0
 34 41  4  0  0  0  0
 35 36  2  0  0  0  0
 35 37  4  0  0  0  0
 37 38  4  0  0  0  0
 38 39  1  0  0  0  0
 38 40  4  0  0  0  0
 40 41  4  0  0  0  0
 44 47  1  0  0  0  0
 44 62  1  0  0  0  0
 44 63  2  0  0  0  0
 46 48  1  0  0  0  0
 46 47  1  0  0  0  0
 48 49  1  0  0  0  0
 48 50  1  0  0  0  0
 45 49  1  0  0  0  0
 50 51  1  0  0  0  0
 50 52  1  0  0  0  0
 51 64  1  0  0  0  0
 52 53  1  0  0  0  0
 45 53  1  0  0  0  0
 53 54  1  0  0  0  0
 54 55  4  0  0  0  0
 54 61  4  0  0  0  0
 55 56  2  0  0  0  0
 55 57  4  0  0  0  0
 57 58  4  0  0  0  0
 58 59  1  0  0  0  0
 58 60  4  0  0  0  0
 60 61  4  0  0  0  0
 64 66  1  0  0  0  0
 64 91  1  0  0  0  0
 65 67  1  0  0  0  0
 65 66  1  0  0  0  0
 67 68  1  0  0  0  0
 67 69  1  0  0  0  0
 69 70  1  0  0  0  0
 69 71  1  0  0  0  0
 71 72  1  0  0  0  0
 71 74  1  0  0  0  0
 68 72  1  0  0  0  0
 72 89  1  0  0  0  0
 73 83  4  0  0  0  0
 74 76  4  0  0  0  0
 74 82  4  0  0  0  0
 73 75  4  0  0  0  0
 75 77  4  0  0  0  0
 76 78  4  0  0  0  0
 77 79  4  0  0  0  0
 79 81  4  0  0  0  0
 78 80  4  0  0  0  0
 80 84  1  0  0  0  0
 81 83  4  0  0  0  0
 81 87  4  0  0  0  0
 80 82  4  0  0  0  0
 83 85  1  0  0  0  0
 84 86  1  0  0  0  0
 87 88  4  0  0  0  0
 79 89  4  0  0  0  0
 88 89  4  0  0  0  0
 64 90  2  0  0  0  0
 92104  1  0  0  0  0
 92108  2  0  0  0  0
 92110  1  0  0  0  0
 93105  1  0  0  0  0
 93111  2  0  0  0  0
 93117  1  0  0  0  0
 94 95  1  0  0  0  0
 92 95  1  0  0  0  0
 94 96  1  0  0  0  0
 96 97  1  0  0  0  0
 96 98  1  0  0  0  0
 98 99  1  0  0  0  0
 98100  1  0  0  0  0
100101  1  0  0  0  0
 97102  1  0  0  0  0
100102  1  0  0  0  0
102103  1  0  0  0  0
103106  4  0  0  0  0
103115  4  0  0  0  0
106107  2  0  0  0  0
106109  4  0  0  0  0
109112  4  0  0  0  0
 93110  1  0  0  0  0
112113  2  0  0  0  0
112114  4  0  0  0  0
114115  4  0  0  0  0
116117  1  0  0  0  0
116118  1  0  0  0  0
116125  1  0  0  0  0
118119  1  0  0  0  0
118120  1  0  0  0  0
120121  1  0  0  0  0
120122  1  0  0  0  0
122123  1  0  0  0  0
122124  1  0  0  0  0
124125  1  0  0  0  0
124126  1  0  0  0  0
126127  1  0  0  0  0
119128  1  0  0  0  0
128129  2  0  0  0  0
128130  1  0  0  0  0
121131  1  0  0  0  0
131132  1  0  0  0  0
131134  1  0  0  0  0
132133  2  0  0  0  0
135136  1  0  0  0  0
136137  1  0  0  0  0
136139  1  0  0  0  0
137138  4  0  0  0  0
137143  4  0  0  0  0
139140  1  0  0  0  0
140141  1  0  0  0  0
141142  1  0  0  0  0
144145  1  0  0  0  0
145146  1  0  0  0  0
145148  1  0  0  0  0
146147  2  0  0  0  0
146149  1  0  0  0  0
149150  1  0  0  0  0
150151  1  0  0  0  0
150153  1  0  0  0  0
151152  4  0  0  0  0
151154  4  0  0  0  0
155156  1  0  0  0  0
155157  1  0  0  0  0
157158  1  0  0  0  0
157159  1  0  0  0  0
159160  1  0  0  0  0
M  END
$$$$
