7Z5Z
  PyMOL2.5          3D                             0

 97 99  0  0  0  0  0  0  0  0999 V2000
   -6.3137   -8.3655   38.5332 P   0  0  0  0  0  0  0  0  0  0  0  0
   -6.7083  -10.5075   37.2188 C   0  0  0  0  0  0  0  0  0  0  0  0
   -5.9037   -9.8650   38.2180 O   0  0  0  0  0  0  0  0  0  0  0  0
   -5.9414  -11.6870   36.6810 C   0  0  0  0  0  0  0  0  0  0  0  0
   -5.6221  -12.5791   37.7740 O   0  0  0  0  0  0  0  0  0  0  0  0
   -6.7500  -12.5126   35.6926 C   0  0  0  0  0  0  0  0  0  0  0  0
   -5.9267  -13.1072   34.6969 O   0  0  0  0  0  0  0  0  0  0  0  0
   -7.3437  -13.5386   36.6575 C   0  0  0  0  0  0  0  0  0  0  0  0
   -6.1171  -13.8846   37.5214 C   0  0  0  0  0  0  0  0  0  0  0  0
   -9.0496  -14.1455   41.7828 N   0  0  0  0  0  0  0  0  0  0  0  0
   -8.0059  -14.6566   35.9704 N   0  0  0  0  0  0  0  0  0  0  0  0
   -9.1670  -13.4115   40.6714 C   0  0  0  0  0  0  0  0  0  0  0  0
   -9.2587  -14.5147   35.4916 N   0  0  0  0  0  0  0  0  0  0  0  0
   -8.3873  -13.4034   39.5873 N   0  0  0  0  0  0  0  0  0  0  0  0
   -9.5602  -15.6256   34.8702 N   0  0  0  0  0  0  0  0  0  0  0  0
   -7.3819  -14.2809   39.7075 C   0  0  0  0  0  0  0  0  0  0  0  0
   -8.5070  -16.4819   34.9531 C   0  0  0  0  0  0  0  0  0  0  0  0
   -7.1348  -15.1129   40.7891 C   0  0  0  0  0  0  0  0  0  0  0  0
   -7.5143  -15.8726   35.6655 C   0  0  0  0  0  0  0  0  0  0  0  0
   -8.0256  -15.0231   41.8762 C   0  0  0  0  0  0  0  0  0  0  0  0
   -8.5327  -17.7965   34.2838 C   0  0  0  0  0  0  0  0  0  0  0  0
   -7.9024  -15.7450   42.9955 N   0  0  0  0  0  0  0  0  0  0  0  0
   -8.8660  -17.5436   32.8247 C   0  0  0  0  0  0  0  0  0  0  0  0
   -6.0035  -15.8800   40.5686 N   0  0  0  0  0  0  0  0  0  0  0  0
   -5.5952  -15.5037   39.3827 C   0  0  0  0  0  0  0  0  0  0  0  0
   -6.3752  -14.5340   38.8039 N   0  0  0  0  0  0  0  0  0  0  0  0
   -5.3107   -7.8670   39.5010 O   0  0  0  0  0  0  0  0  0  0  0  0
   -6.4275   -7.6340   37.2050 O   0  5  0  0  0  0  0  0  0  0  0  0
   -1.5327  -24.0847   24.7834 P   0  0  0  0  0  0  0  0  0  0  0  0
    1.2301  -23.5456   24.3106 P   0  0  0  0  0  0  0  0  0  0  0  0
   -1.9646  -26.6597   24.7290 C   0  0  0  0  0  0  0  0  0  0  0  0
   -1.9455  -25.4275   25.4742 O   0  0  0  0  0  0  0  0  0  0  0  0
   -2.8276  -27.6394   25.4746 C   0  0  0  0  0  0  0  0  0  0  0  0
   -3.0073  -28.8324   24.6741 O   0  0  0  0  0  0  0  0  0  0  0  0
   -2.2723  -28.1052   26.8293 C   0  0  0  0  0  0  0  0  0  0  0  0
   -3.2768  -27.9195   27.8183 O   0  0  0  0  0  0  0  0  0  0  0  0
   -1.9853  -29.5925   26.5955 C   0  0  0  0  0  0  0  0  0  0  0  0
   -2.1669  -30.4048   27.7488 O   0  0  0  0  0  0  0  0  0  0  0  0
   -3.0518  -29.9143   25.5590 C   0  0  0  0  0  0  0  0  0  0  0  0
   -2.7912  -31.1536   24.8206 N   0  0  0  0  0  0  0  0  0  0  0  0
   -2.5108  -23.8275   23.7051 O   0  5  0  0  0  0  0  0  0  0  0  0
    0.8816  -22.1927   23.7102 O   0  5  0  0  0  0  0  0  0  0  0  0
   -3.7826  -32.1122   24.8258 C   0  0  0  0  0  0  0  0  0  0  0  0
   -4.8600  -31.9520   25.3809 O   0  0  0  0  0  0  0  0  0  0  0  0
   -1.3316  -22.9871   25.8268 O   0  0  0  0  0  0  0  0  0  0  0  0
   -3.4782  -33.2660   24.1536 N   0  0  0  0  0  0  0  0  0  0  0  0
   -0.0973  -24.3918   24.1498 O   0  0  0  0  0  0  0  0  0  0  0  0
    2.2390  -24.2799   23.4263 O   0  0  0  0  0  0  0  0  0  0  0  0
   -2.2991  -33.5502   23.4923 C   0  0  0  0  0  0  0  0  0  0  0  0
   -2.1642  -34.6430   22.9299 O   0  0  0  0  0  0  0  0  0  0  0  0
   -1.3154  -32.5120   23.5445 C   0  0  0  0  0  0  0  0  0  0  0  0
   -1.5868  -31.3679   24.1950 C   0  0  0  0  0  0  0  0  0  0  0  0
    2.1231  -24.3890   26.6447 C   0  0  0  0  0  0  0  0  0  0  0  0
    1.6154  -23.3967   25.8117 O   0  0  0  0  0  0  0  0  0  0  0  0
    1.6379  -24.0435   28.0538 C   0  0  0  0  0  0  0  0  0  0  0  0
    0.1885  -24.0460   28.0629 N   0  0  0  0  0  0  0  0  0  0  0  0
    2.1968  -22.6837   28.4743 C   0  0  0  0  0  0  0  0  0  0  0  0
    1.9214  -22.4965   29.8654 O   0  0  0  0  0  0  0  0  0  0  0  0
    3.6983  -22.6090   28.2172 C   0  0  0  0  0  0  0  0  0  0  0  0
    4.1868  -21.2957   28.4812 O   0  0  0  0  0  0  0  0  0  0  0  0
    3.9918  -22.9523   26.7601 C   0  0  0  0  0  0  0  0  0  0  0  0
    3.5306  -24.2944   26.5050 O   0  0  0  0  0  0  0  0  0  0  0  0
    5.4584  -22.9240   26.4089 C   0  0  0  0  0  0  0  0  0  0  0  0
    6.1507  -23.9374   27.1119 O   0  0  0  0  0  0  0  0  0  0  0  0
   -0.5395  -24.9623   28.7041 C   0  0  0  0  0  0  0  0  0  0  0  0
   -0.0198  -25.8714   29.3438 O   0  0  0  0  0  0  0  0  0  0  0  0
   -2.0263  -24.8097   28.6015 C   0  0  0  0  0  0  0  0  0  0  0  0
    0.7657  -21.7081   30.1792 C   0  0  0  0  0  0  0  0  0  0  0  0
   -0.3208  -22.5512   30.8501 C   0  0  0  0  0  0  0  0  0  0  0  0
   -1.5217  -22.2893   30.5800 O   0  0  0  0  0  0  0  0  0  0  0  0
    1.2188  -20.5897   31.0927 C   0  0  0  0  0  0  0  0  0  0  0  0
   -1.4520  -22.8194   33.9361 N   0  0  0  0  0  0  0  0  0  0  0  0
   -2.3622  -22.2015   34.8832 C   0  0  0  0  0  0  0  0  0  0  0  0
   -1.9406  -22.5577   36.2837 C   0  0  0  0  0  0  0  0  0  0  0  0
   -0.7708  -22.8246   36.5474 O   0  0  0  0  0  0  0  0  0  0  0  0
   -2.3708  -20.6870   34.6959 C   0  0  0  0  0  0  0  0  0  0  0  0
   -2.8753  -20.2766   33.3141 C   0  0  0  0  0  0  0  0  0  0  0  0
   -4.3859  -20.3582   33.1921 C   0  0  0  0  0  0  0  0  0  0  0  0
   -5.0600  -21.0291   33.9603 O   0  0  0  0  0  0  0  0  0  0  0  0
   -2.8512  -22.5762   37.2589 O   0  0  0  0  0  0  0  0  0  0  0  0
   -5.6255  -21.3117   29.5874 N   0  0  0  0  0  0  0  0  0  0  0  0
   -5.7048  -21.5181   28.1442 C   0  0  0  0  0  0  0  0  0  0  0  0
   -5.1706  -20.2890   27.4224 C   0  0  0  0  0  0  0  0  0  0  0  0
   -4.1319  -19.7310   27.8177 O   0  0  0  0  0  0  0  0  0  0  0  0
   -4.9130  -22.7523   27.7379 C   0  0  0  0  0  0  0  0  0  0  0  0
   -5.8801  -19.8673   26.3763 N   0  0  0  0  0  0  0  0  0  0  0  0
   -5.5240  -18.6512   25.6335 C   0  0  0  0  0  0  0  0  0  0  0  0
   -4.1203  -18.7336   25.0263 C   0  0  0  0  0  0  0  0  0  0  0  0
   -3.3759  -17.7455   25.0347 O   0  0  0  0  0  0  0  0  0  0  0  0
   -6.5421  -18.3695   24.5461 C   0  0  0  0  0  0  0  0  0  0  0  0
   -3.7145  -19.7799   24.5193 O   0  0  0  0  0  0  0  0  0  0  0  0
   14.6947  -13.5079   26.8369 C   0  0  0  0  0  0  0  0  0  0  0  0
   14.2696  -14.2929   27.9070 O   0  0  0  0  0  0  0  0  0  0  0  0
   14.2813  -12.0818   27.1822 C   0  0  0  0  0  0  0  0  0  0  0  0
   12.8432  -11.9379   27.1760 O   0  0  0  0  0  0  0  0  0  0  0  0
   14.9508  -11.1780   26.0959 C   0  0  0  0  0  0  0  0  0  0  0  0
   16.3018  -10.9872   26.4603 O   0  0  0  0  0  0  0  0  0  0  0  0
  1  3  1  0  0  0  0
  1 28  1  0  0  0  0
  2  4  1  0  0  0  0
  2  3  1  0  0  0  0
  4  5  1  0  0  0  0
  4  6  1  0  0  0  0
  6  7  1  0  0  0  0
  6  8  1  0  0  0  0
  8  9  1  0  0  0  0
  8 11  1  0  0  0  0
  5  9  1  0  0  0  0
  9 26  1  0  0  0  0
 10 20  4  0  0  0  0
 11 13  4  0  0  0  0
 11 19  4  0  0  0  0
 10 12  4  0  0  0  0
 12 14  4  0  0  0  0
 13 15  4  0  0  0  0
 14 16  4  0  0  0  0
 16 18  4  0  0  0  0
 15 17  4  0  0  0  0
 17 21  1  0  0  0  0
 18 20  4  0  0  0  0
 18 24  4  0  0  0  0
 17 19  4  0  0  0  0
 20 22  1  0  0  0  0
 21 23  1  0  0  0  0
 24 25  4  0  0  0  0
 16 26  4  0  0  0  0
 25 26  4  0  0  0  0
  1 27  2  0  0  0  0
 29 41  1  0  0  0  0
 29 45  2  0  0  0  0
 29 47  1  0  0  0  0
 30 42  1  0  0  0  0
 30 48  2  0  0  0  0
 30 54  1  0  0  0  0
 31 32  1  0  0  0  0
 29 32  1  0  0  0  0
 31 33  1  0  0  0  0
 33 34  1  0  0  0  0
 33 35  1  0  0  0  0
 35 36  1  0  0  0  0
 35 37  1  0  0  0  0
 37 38  1  0  0  0  0
 34 39  1  0  0  0  0
 37 39  1  0  0  0  0
 39 40  1  0  0  0  0
 40 43  4  0  0  0  0
 40 52  4  0  0  0  0
 43 44  2  0  0  0  0
 43 46  4  0  0  0  0
 46 49  4  0  0  0  0
 30 47  1  0  0  0  0
 49 50  2  0  0  0  0
 49 51  4  0  0  0  0
 51 52  4  0  0  0  0
 53 54  1  0  0  0  0
 53 55  1  0  0  0  0
 53 62  1  0  0  0  0
 55 56  1  0  0  0  0
 55 57  1  0  0  0  0
 57 58  1  0  0  0  0
 57 59  1  0  0  0  0
 59 60  1  0  0  0  0
 59 61  1  0  0  0  0
 61 62  1  0  0  0  0
 61 63  1  0  0  0  0
 63 64  1  0  0  0  0
 56 65  1  0  0  0  0
 65 66  2  0  0  0  0
 65 67  1  0  0  0  0
 58 68  1  0  0  0  0
 68 69  1  0  0  0  0
 68 71  1  0  0  0  0
 69 70  2  0  0  0  0
 72 73  1  0  0  0  0
 73 74  1  0  0  0  0
 73 76  1  0  0  0  0
 74 75  4  0  0  0  0
 74 80  4  0  0  0  0
 76 77  1  0  0  0  0
 77 78  1  0  0  0  0
 78 79  1  0  0  0  0
 81 82  1  0  0  0  0
 82 83  1  0  0  0  0
 82 85  1  0  0  0  0
 83 84  2  0  0  0  0
 83 86  1  0  0  0  0
 86 87  1  0  0  0  0
 87 88  1  0  0  0  0
 87 90  1  0  0  0  0
 88 89  4  0  0  0  0
 88 91  4  0  0  0  0
 92 93  1  0  0  0  0
 92 94  1  0  0  0  0
 94 95  1  0  0  0  0
 94 96  1  0  0  0  0
 96 97  1  0  0  0  0
M  END
$$$$
