7ZPY
  PyMOL2.5          3D                             0

  5  4  0  0  0  0  0  0  0  0999 V2000
   -0.7060  -32.8744   67.2672 C   0  0  0  0  0  0  0  0  0  0  0  0
   -1.5530  -32.0383   68.1247 C   0  0  0  0  0  0  0  0  0  0  0  0
   -0.4744  -30.0300   68.9483 C   0  0  0  0  0  0  0  0  0  0  0  0
    0.3106  -33.5460   67.9943 O   0  0  0  0  0  0  0  0  0  0  0  0
   -1.2738  -30.6585   67.9453 O   0  0  0  0  0  0  0  0  0  0  0  0
  1  2  1  0  0  0  0
  2  5  1  0  0  0  0
  1  4  1  0  0  0  0
  3  5  1  0  0  0  0
M  END
$$$$
