8DU8
  PyMOL2.5          3D                             0

 70 83  0  0  0  0  0  0  0  0999 V2000
   33.9986  -20.8456    9.9460 C   0  0  0  0  0  0  0  0  0  0  0  0
   36.0064  -20.4365   13.0784 N   0  0  0  0  0  0  0  0  0  0  0  0
   38.0469  -19.8430   12.5427 O   0  0  0  0  0  0  0  0  0  0  0  0
   33.0591  -21.5395    9.4774 C   0  0  0  0  0  0  0  0  0  0  0  0
   32.6203  -12.7284   10.1617 N   0  0  0  0  0  0  0  0  0  0  0  0
   31.3385  -23.2284    9.7509 O   0  0  0  0  0  0  0  0  0  0  0  0
   32.3438  -22.5406   10.3188 C   0  0  0  0  0  0  0  0  0  0  0  0
   33.4334  -14.7455   11.8671 O   0  0  0  0  0  0  0  0  0  0  0  0
   32.6974  -22.6905   11.5769 C   0  0  0  0  0  0  0  0  0  0  0  0
   33.8040  -21.8131   12.1104 C   0  0  0  0  0  0  0  0  0  0  0  0
   34.4332  -20.9680   11.3747 C   0  0  0  0  0  0  0  0  0  0  0  0
   34.1756  -22.0629   13.5325 C   0  0  0  0  0  0  0  0  0  0  0  0
   35.0328  -20.9306   14.0227 C   0  0  0  0  0  0  0  0  0  0  0  0
   35.5230  -20.0001   11.7946 C   0  0  0  0  0  0  0  0  0  0  0  0
   37.4027  -20.2953   13.3217 C   0  0  0  0  0  0  0  0  0  0  0  0
   38.0492  -20.8903   14.5575 C   0  0  0  0  0  0  0  0  0  0  0  0
   35.0142  -18.5808   11.7784 C   0  0  0  0  0  0  0  0  0  0  0  0
   33.7891  -18.3643   12.1492 C   0  0  0  0  0  0  0  0  0  0  0  0
   33.2873  -16.9780   12.1634 C   0  0  0  0  0  0  0  0  0  0  0  0
   34.0233  -16.0337   11.7556 C   0  0  0  0  0  0  0  0  0  0  0  0
   35.4491  -16.2526   11.3034 C   0  0  0  0  0  0  0  0  0  0  0  0
   35.9175  -17.4786   11.3216 C   0  0  0  0  0  0  0  0  0  0  0  0
   35.1268  -20.8869   15.5599 C   0  0  0  0  0  0  0  0  0  0  0  0
   34.2654  -19.8967   14.8914 C   0  0  0  0  0  0  0  0  0  0  0  0
   32.8144  -14.4097   10.5977 C   0  0  0  0  0  0  0  0  0  0  0  0
   33.6615  -13.6090    9.8983 C   0  0  0  0  0  0  0  0  0  0  0  0
   31.7409  -13.5613   10.7665 C   0  0  0  0  0  0  0  0  0  0  0  0
   32.0715  -12.2569    9.3510 C   0  0  0  0  0  0  0  0  0  0  0  0
   31.6887  -10.8174    9.8813 C   0  0  0  0  0  0  0  0  0  0  0  0
   31.0325   -9.9469    8.8003 C   0  0  0  0  0  0  0  0  0  0  0  0
   38.7452  -20.2469   15.4138 C   0  0  0  0  0  0  0  0  0  0  0  0
   39.3390  -21.0819   16.4974 C   0  0  0  0  0  0  0  0  0  0  0  0
   39.2264  -22.3638   16.5444 C   0  0  0  0  0  0  0  0  0  0  0  0
   38.4824  -23.1202   15.4987 C   0  0  0  0  0  0  0  0  0  0  0  0
   37.9223  -22.4170   14.5900 C   0  0  0  0  0  0  0  0  0  0  0  0
   29.9553  -11.7661   45.0011 C   0  0  0  0  0  0  0  0  0  0  0  0
   29.7449  -10.3044   41.5295 N   0  0  0  0  0  0  0  0  0  0  0  0
   30.5277   -8.2109   41.7541 O   0  0  0  0  0  0  0  0  0  0  0  0
   29.2749  -12.6672   45.7323 C   0  0  0  0  0  0  0  0  0  0  0  0
   37.7917  -13.3953   43.7942 N   0  0  0  0  0  0  0  0  0  0  0  0
   27.5303  -14.4514   45.9174 O   0  0  0  0  0  0  0  0  0  0  0  0
   28.1575  -13.4992   45.1689 C   0  0  0  0  0  0  0  0  0  0  0  0
   35.6544  -12.8155   42.0332 O   0  0  0  0  0  0  0  0  0  0  0  0
   27.7539  -13.3045   43.8494 C   0  0  0  0  0  0  0  0  0  0  0  0
   28.5350  -12.2938   43.0599 C   0  0  0  0  0  0  0  0  0  0  0  0
   29.5381  -11.5563   43.5454 C   0  0  0  0  0  0  0  0  0  0  0  0
   28.0373  -12.1339   41.6091 C   0  0  0  0  0  0  0  0  0  0  0  0
   29.0526  -11.4151   40.8474 C   0  0  0  0  0  0  0  0  0  0  0  0
   30.4299  -10.6102   42.8396 C   0  0  0  0  0  0  0  0  0  0  0  0
   29.8681   -8.9587   41.0793 C   0  0  0  0  0  0  0  0  0  0  0  0
   29.0731   -8.4128   39.9038 C   0  0  0  0  0  0  0  0  0  0  0  0
   31.8438  -11.1265   42.6648 C   0  0  0  0  0  0  0  0  0  0  0  0
   31.9855  -12.4649   42.4205 C   0  0  0  0  0  0  0  0  0  0  0  0
   33.3487  -12.9902   42.1863 C   0  0  0  0  0  0  0  0  0  0  0  0
   34.3785  -12.2219   42.2781 C   0  0  0  0  0  0  0  0  0  0  0  0
   34.2202  -10.7399   42.5633 C   0  0  0  0  0  0  0  0  0  0  0  0
   32.9942  -10.1823   42.7498 C   0  0  0  0  0  0  0  0  0  0  0  0
   28.9067  -11.4837   39.2900 C   0  0  0  0  0  0  0  0  0  0  0  0
   29.9825  -12.3273   39.9629 C   0  0  0  0  0  0  0  0  0  0  0  0
   36.7036  -12.2299   42.8521 C   0  0  0  0  0  0  0  0  0  0  0  0
   36.5180  -12.8252   44.1018 C   0  0  0  0  0  0  0  0  0  0  0  0
   37.8991  -12.8962   42.4792 C   0  0  0  0  0  0  0  0  0  0  0  0
   37.6849  -14.5134   43.7916 C   0  0  0  0  0  0  0  0  0  0  0  0
   38.9148  -15.3369   43.2859 C   0  0  0  0  0  0  0  0  0  0  0  0
   40.3167  -14.8244   43.7010 C   0  0  0  0  0  0  0  0  0  0  0  0
   27.7552   -8.5380   40.1149 C   0  0  0  0  0  0  0  0  0  0  0  0
   26.7256   -7.9865   39.1414 C   0  0  0  0  0  0  0  0  0  0  0  0
   27.3057   -7.4141   38.1042 C   0  0  0  0  0  0  0  0  0  0  0  0
   28.7920   -7.3174   37.8503 C   0  0  0  0  0  0  0  0  0  0  0  0
   29.7234   -7.7931   38.7288 C   0  0  0  0  0  0  0  0  0  0  0  0
  1  4  4  0  0  0  0
  2 13  1  0  0  0  0
  2 14  1  0  0  0  0
  2 15  1  0  0  0  0
  4  7  4  0  0  0  0
  6  7  1  0  0  0  0
  7  9  4  0  0  0  0
  9 10  4  0  0  0  0
 10 11  4  0  0  0  0
 10 12  1  0  0  0  0
  1 11  4  0  0  0  0
 11 14  1  0  0  0  0
 12 13  1  0  0  0  0
 13 23  1  0  0  0  0
 13 24  1  0  0  0  0
  3 15  2  0  0  0  0
 15 16  1  0  0  0  0
 16 35  4  0  0  0  0
 14 17  1  0  0  0  0
 17 18  4  0  0  0  0
 18 19  4  0  0  0  0
  8 20  1  0  0  0  0
 19 20  4  0  0  0  0
 20 21  4  0  0  0  0
 17 22  4  0  0  0  0
 21 22  4  0  0  0  0
 23 24  1  0  0  0  0
  5 25  1  0  0  0  0
  8 25  1  0  0  0  0
 25 26  1  0  0  0  0
 25 27  1  0  0  0  0
  5 26  1  0  0  0  0
  5 27  1  0  0  0  0
 27 28  1  0  0  0  0
  5 28  1  0  0  0  0
 28 29  1  0  0  0  0
 29 30  1  0  0  0  0
 16 31  4  0  0  0  0
 31 32  4  0  0  0  0
 32 33  4  0  0  0  0
 33 34  4  0  0  0  0
 34 35  4  0  0  0  0
 36 39  4  0  0  0  0
 37 48  1  0  0  0  0
 37 49  1  0  0  0  0
 37 50  1  0  0  0  0
 39 42  4  0  0  0  0
 41 42  1  0  0  0  0
 42 44  4  0  0  0  0
 44 45  4  0  0  0  0
 45 46  4  0  0  0  0
 45 47  1  0  0  0  0
 36 46  4  0  0  0  0
 46 49  1  0  0  0  0
 47 48  1  0  0  0  0
 48 58  1  0  0  0  0
 48 59  1  0  0  0  0
 38 50  2  0  0  0  0
 50 51  1  0  0  0  0
 51 70  4  0  0  0  0
 49 52  1  0  0  0  0
 52 53  4  0  0  0  0
 53 54  4  0  0  0  0
 43 55  1  0  0  0  0
 54 55  4  0  0  0  0
 55 56  4  0  0  0  0
 52 57  4  0  0  0  0
 56 57  4  0  0  0  0
 58 59  1  0  0  0  0
 40 60  1  0  0  0  0
 43 60  1  0  0  0  0
 60 61  1  0  0  0  0
 60 62  1  0  0  0  0
 40 61  1  0  0  0  0
 40 62  1  0  0  0  0
 40 63  1  0  0  0  0
 63 64  1  0  0  0  0
 64 65  1  0  0  0  0
 51 66  4  0  0  0  0
 66 67  4  0  0  0  0
 67 68  4  0  0  0  0
 68 69  4  0  0  0  0
 69 70  4  0  0  0  0
M  END
$$$$
