8DUC
  PyMOL2.5          3D                             0

 36 41  0  0  0  0  0  0  0  0999 V2000
    8.0768  -28.5159   16.0163 C   0  0  0  0  0  0  0  0  0  0  0  0
    9.8802  -26.5586   18.8221 N   0  0  0  0  0  0  0  0  0  0  0  0
    6.9401  -26.7359   13.0287 O   0  0  0  0  0  0  0  0  0  0  0  0
    7.4939  -28.2889   14.8919 C   0  0  0  0  0  0  0  0  0  0  0  0
   14.0911  -35.7974   15.7565 N   0  0  0  0  0  0  0  0  0  0  0  0
    9.5287  -27.7887   20.6953 O   0  0  0  0  0  0  0  0  0  0  0  0
    7.5559  -26.9581   14.2305 C   0  0  0  0  0  0  0  0  0  0  0  0
   13.8040  -31.4943   17.2378 O   0  0  0  0  0  0  0  0  0  0  0  0
    8.2471  -26.0134   14.8663 C   0  0  0  0  0  0  0  0  0  0  0  0
    8.9681  -26.3135   16.2009 C   0  0  0  0  0  0  0  0  0  0  0  0
    8.8590  -27.4347   16.7430 C   0  0  0  0  0  0  0  0  0  0  0  0
    9.6629  -25.1373   16.8154 C   0  0  0  0  0  0  0  0  0  0  0  0
   10.2683  -25.2920   18.1794 C   0  0  0  0  0  0  0  0  0  0  0  0
    9.5581  -27.7489   18.0617 C   0  0  0  0  0  0  0  0  0  0  0  0
    9.8422  -26.7484   20.2682 C   0  0  0  0  0  0  0  0  0  0  0  0
   10.0066  -25.6156   21.2762 C   0  0  0  0  0  0  0  0  0  0  0  0
   10.7849  -25.7027   22.3151 C   0  0  0  0  0  0  0  0  0  0  0  0
   10.7345  -24.5378   23.2729 C   0  0  0  0  0  0  0  0  0  0  0  0
    9.9411  -23.5266   23.0438 C   0  0  0  0  0  0  0  0  0  0  0  0
    9.0136  -23.4464   21.8425 C   0  0  0  0  0  0  0  0  0  0  0  0
    9.0551  -24.4464   21.0295 C   0  0  0  0  0  0  0  0  0  0  0  0
   10.6851  -28.6699   17.8275 C   0  0  0  0  0  0  0  0  0  0  0  0
   11.4724  -28.4986   16.8068 C   0  0  0  0  0  0  0  0  0  0  0  0
   12.5762  -29.5313   16.6047 C   0  0  0  0  0  0  0  0  0  0  0  0
   12.7382  -30.5510   17.3999 C   0  0  0  0  0  0  0  0  0  0  0  0
   11.8320  -30.6784   18.5891 C   0  0  0  0  0  0  0  0  0  0  0  0
   10.8866  -29.8133   18.7855 C   0  0  0  0  0  0  0  0  0  0  0  0
   13.6688  -32.7098   16.5172 C   0  0  0  0  0  0  0  0  0  0  0  0
   14.7042  -33.8933   16.8934 C   0  0  0  0  0  0  0  0  0  0  0  0
   15.7258  -34.1852   15.9948 C   0  0  0  0  0  0  0  0  0  0  0  0
   15.0820  -35.1162   15.0071 C   0  0  0  0  0  0  0  0  0  0  0  0
   13.8481  -35.1355   16.9633 C   0  0  0  0  0  0  0  0  0  0  0  0
   14.5125  -36.9015   15.9807 C   0  0  0  0  0  0  0  0  0  0  0  0
   13.4885  -37.8350   16.6665 C   0  0  0  0  0  0  0  0  0  0  0  0
   11.0390  -24.2306   18.9959 C   0  0  0  0  0  0  0  0  0  0  0  0
   11.7014  -24.8058   17.8467 C   0  0  0  0  0  0  0  0  0  0  0  0
  1  4  4  0  0  0  0
  2 13  1  0  0  0  0
  2 14  1  0  0  0  0
  2 15  1  0  0  0  0
  4  7  4  0  0  0  0
  3  7  1  0  0  0  0
  7  9  4  0  0  0  0
  9 10  4  0  0  0  0
 10 11  4  0  0  0  0
 10 12  1  0  0  0  0
  1 11  4  0  0  0  0
 11 14  1  0  0  0  0
 12 13  1  0  0  0  0
 13 35  1  0  0  0  0
 13 36  1  0  0  0  0
  6 15  2  0  0  0  0
 15 16  1  0  0  0  0
 16 17  4  0  0  0  0
 16 21  4  0  0  0  0
 17 18  4  0  0  0  0
 18 19  4  0  0  0  0
 19 20  4  0  0  0  0
 20 21  4  0  0  0  0
 14 22  1  0  0  0  0
 22 23  4  0  0  0  0
 22 27  4  0  0  0  0
 23 24  4  0  0  0  0
  8 25  1  0  0  0  0
 24 25  4  0  0  0  0
 25 26  4  0  0  0  0
 26 27  4  0  0  0  0
  8 28  1  0  0  0  0
 28 29  1  0  0  0  0
 29 30  1  0  0  0  0
 29 32  1  0  0  0  0
  5 31  1  0  0  0  0
 30 31  1  0  0  0  0
  5 32  1  0  0  0  0
  5 33  1  0  0  0  0
 33 34  1  0  0  0  0
 35 36  1  0  0  0  0
M  END
$$$$
