8EYJ
  PyMOL2.5          3D                             0

136140  0  0  0  0  0  0  0  0999 V2000
    6.0283   14.3822   -6.4073 C   0  0  0  0  0  0  0  0  0  0  0  0
    4.8513   13.8322   -6.1084 N   0  0  0  0  0  0  0  0  0  0  0  0
    5.0639    9.0605   -4.7557 O   0  0  0  0  0  0  0  0  0  0  0  0
    4.2052   12.8629   -6.9823 C   0  0  0  0  0  0  0  0  0  0  0  0
    6.5269    8.6369   -6.4427 N   0  0  0  0  0  0  0  0  0  0  0  0
    6.6155   14.1973   -7.4723 O   0  0  0  0  0  0  0  0  0  0  0  0
    2.7500   13.2600   -7.1952 C   0  0  0  0  0  0  0  0  0  0  0  0
    8.1147   15.1053   -5.3632 N   0  0  0  0  0  0  0  0  0  0  0  0
    7.8999   13.0383   -4.5496 O   0  0  0  0  0  0  0  0  0  0  0  0
    4.2980   11.4430   -6.4114 C   0  0  0  0  0  0  0  0  0  0  0  0
   10.6485   13.5138   -3.6877 N   0  0  0  0  0  0  0  0  0  0  0  0
   11.5938   15.5348   -3.3804 O   0  0  0  0  0  0  0  0  0  0  0  0
    5.7009   10.8151   -6.3526 C   0  0  0  0  0  0  0  0  0  0  0  0
    2.1433   13.2483   -8.3231 N   0  0  0  0  0  0  0  0  0  0  0  0
    6.3981   10.6349   -7.7008 C   0  0  0  0  0  0  0  0  0  0  0  0
    7.0053    9.2277   -7.6859 C   0  0  0  0  0  0  0  0  0  0  0  0
    5.7112    9.4193   -5.7469 C   0  0  0  0  0  0  0  0  0  0  0  0
    6.6557   15.2462   -5.3206 C   0  0  0  0  0  0  0  0  0  0  0  0
    8.8323   16.2913   -5.8645 C   0  0  0  0  0  0  0  0  0  0  0  0
    7.7374   17.3330   -5.9761 C   0  0  0  0  0  0  0  0  0  0  0  0
    6.4124   16.7118   -5.5963 C   0  0  0  0  0  0  0  0  0  0  0  0
    8.6363   13.9501   -4.9475 C   0  0  0  0  0  0  0  0  0  0  0  0
   10.1563   13.8075   -5.0204 C   0  0  0  0  0  0  0  0  0  0  0  0
   10.7058   12.8152   -6.0631 C   0  0  0  0  0  0  0  0  0  0  0  0
   10.2181   11.3946   -5.7675 C   0  0  0  0  0  0  0  0  0  0  0  0
   10.2197   13.2333   -7.4615 C   0  0  0  0  0  0  0  0  0  0  0  0
    7.0129   17.8190   -4.7469 C   0  0  0  0  0  0  0  0  0  0  0  0
    6.4054   19.1915   -4.8437 C   0  0  0  0  0  0  0  0  0  0  0  0
    7.6315   17.5771   -3.3916 C   0  0  0  0  0  0  0  0  0  0  0  0
   11.2623   14.4473   -2.9582 C   0  0  0  0  0  0  0  0  0  0  0  0
   11.5641   14.1040   -1.4987 C   0  0  0  0  0  0  0  0  0  0  0  0
   12.2483   12.8294   -6.0385 C   0  0  0  0  0  0  0  0  0  0  0  0
   10.5472   13.4955   -0.9088 F   0  0  0  0  0  0  0  0  0  0  0  0
   11.8164   15.2019   -0.7949 F   0  0  0  0  0  0  0  0  0  0  0  0
   12.6090   13.2874   -1.3914 F   0  0  0  0  0  0  0  0  0  0  0  0
    4.4514   14.0565   -5.3702 H   0  0  0  0  0  0  0  0  0  0  0  0
    3.7241   10.8583   -6.9497 H   0  0  0  0  0  0  0  0  0  0  0  0
    3.9283   11.4534   -5.5031 H   0  0  0  0  0  0  0  0  0  0  0  0
    6.2717   11.3905   -5.7862 H   0  0  0  0  0  0  0  0  0  0  0  0
    5.7570   10.7215   -8.4352 H   0  0  0  0  0  0  0  0  0  0  0  0
    7.0989   11.3082   -7.8189 H   0  0  0  0  0  0  0  0  0  0  0  0
    7.9876    9.2688   -7.6996 H   0  0  0  0  0  0  0  0  0  0  0  0
    6.7025    8.7062   -8.4627 H   0  0  0  0  0  0  0  0  0  0  0  0
    6.7432    7.8356   -6.1777 H   0  0  0  0  0  0  0  0  0  0  0  0
    6.3077   14.9909   -4.4332 H   0  0  0  0  0  0  0  0  0  0  0  0
    9.5265   16.5774   -5.2342 H   0  0  0  0  0  0  0  0  0  0  0  0
    9.2423   16.1147   -6.7365 H   0  0  0  0  0  0  0  0  0  0  0  0
    7.7493   17.9525   -6.7752 H   0  0  0  0  0  0  0  0  0  0  0  0
    5.6398   16.9615   -6.2043 H   0  0  0  0  0  0  0  0  0  0  0  0
   10.5307   14.6838   -5.2763 H   0  0  0  0  0  0  0  0  0  0  0  0
   10.5471   12.7173   -3.3429 H   0  0  0  0  0  0  0  0  0  0  0  0
    9.6616   11.3983   -4.9717 H   0  0  0  0  0  0  0  0  0  0  0  0
   10.9804   10.8083   -5.6197 H   0  0  0  0  0  0  0  0  0  0  0  0
    9.6993   11.0597   -6.5192 H   0  0  0  0  0  0  0  0  0  0  0  0
    9.6746   14.0351   -7.3947 H   0  0  0  0  0  0  0  0  0  0  0  0
    9.6891   12.5194   -7.8543 H   0  0  0  0  0  0  0  0  0  0  0  0
   10.9842   13.4155   -8.0348 H   0  0  0  0  0  0  0  0  0  0  0  0
    5.6820   19.1795   -5.4854 H   0  0  0  0  0  0  0  0  0  0  0  0
    7.0787   19.8265   -5.1323 H   0  0  0  0  0  0  0  0  0  0  0  0
    6.0605   19.4604   -3.9772 H   0  0  0  0  0  0  0  0  0  0  0  0
    7.5835   16.6346   -3.1767 H   0  0  0  0  0  0  0  0  0  0  0  0
    7.1557   18.0861   -2.7188 H   0  0  0  0  0  0  0  0  0  0  0  0
    8.5603   17.8548   -3.4047 H   0  0  0  0  0  0  0  0  0  0  0  0
   12.5595   13.4676   -5.3737 H   0  0  0  0  0  0  0  0  0  0  0  0
   12.5909   13.0869   -6.9114 H   0  0  0  0  0  0  0  0  0  0  0  0
   12.5834   11.9449   -5.8123 H   0  0  0  0  0  0  0  0  0  0  0  0
    4.6579   12.8764   -7.8611 H   0  0  0  0  0  0  0  0  0  0  0  0
    1.2924   13.5150   -8.2516 H   0  0  0  0  0  0  0  0  0  0  0  0
  -20.1724  -23.3760    3.6673 C   0  0  0  0  0  0  0  0  0  0  0  0
  -19.9595  -22.2764    2.9245 N   0  0  0  0  0  0  0  0  0  0  0  0
  -15.5468  -20.3040    3.7118 O   0  0  0  0  0  0  0  0  0  0  0  0
  -19.9285  -20.9527    3.5337 C   0  0  0  0  0  0  0  0  0  0  0  0
  -15.8378  -20.4507    5.9942 N   0  0  0  0  0  0  0  0  0  0  0  0
  -20.3693  -23.3260    4.8768 O   0  0  0  0  0  0  0  0  0  0  0  0
  -20.7699  -19.9714    2.7442 C   0  0  0  0  0  0  0  0  0  0  0  0
  -19.4535  -25.6906    3.9356 N   0  0  0  0  0  0  0  0  0  0  0  0
  -17.5076  -24.5765    4.0545 O   0  0  0  0  0  0  0  0  0  0  0  0
  -18.5024  -20.3895    3.6427 C   0  0  0  0  0  0  0  0  0  0  0  0
  -16.5504  -27.2631    4.8003 N   0  0  0  0  0  0  0  0  0  0  0  0
  -17.6883  -29.0695    4.0894 O   0  0  0  0  0  0  0  0  0  0  0  0
  -17.6564  -21.0895    4.6930 C   0  0  0  0  0  0  0  0  0  0  0  0
  -21.5724  -19.1470    3.3107 N   0  0  0  0  0  0  0  0  0  0  0  0
  -18.1155  -20.9522    6.1314 C   0  0  0  0  0  0  0  0  0  0  0  0
  -16.8207  -20.9675    6.9379 C   0  0  0  0  0  0  0  0  0  0  0  0
  -16.2280  -20.5698    4.7156 C   0  0  0  0  0  0  0  0  0  0  0  0
  -20.0253  -24.7258    2.9889 C   0  0  0  0  0  0  0  0  0  0  0  0
  -20.3845  -26.7535    4.3607 C   0  0  0  0  0  0  0  0  0  0  0  0
  -21.5703  -26.5874    3.4452 C   0  0  0  0  0  0  0  0  0  0  0  0
  -21.3738  -25.3256    2.6346 C   0  0  0  0  0  0  0  0  0  0  0  0
  -18.1985  -25.5456    4.3898 C   0  0  0  0  0  0  0  0  0  0  0  0
  -17.6925  -26.5901    5.3883 C   0  0  0  0  0  0  0  0  0  0  0  0
  -17.3934  -26.0157    6.7726 C   0  0  0  0  0  0  0  0  0  0  0  0
  -16.2340  -25.0096    6.7401 C   0  0  0  0  0  0  0  0  0  0  0  0
  -18.6446  -25.3114    7.3041 C   0  0  0  0  0  0  0  0  0  0  0  0
  -21.3772  -26.6833    1.9608 C   0  0  0  0  0  0  0  0  0  0  0  0
  -22.5911  -27.1012    1.1589 C   0  0  0  0  0  0  0  0  0  0  0  0
  -20.0938  -27.2732    1.4078 C   0  0  0  0  0  0  0  0  0  0  0  0
  -16.6658  -28.4204    4.1569 C   0  0  0  0  0  0  0  0  0  0  0  0
  -15.4095  -29.0042    3.5156 C   0  0  0  0  0  0  0  0  0  0  0  0
  -17.0111  -27.1546    7.7253 C   0  0  0  0  0  0  0  0  0  0  0  0
  -14.8425  -28.1663    2.6590 F   0  0  0  0  0  0  0  0  0  0  0  0
  -14.4923  -29.3389    4.4198 F   0  0  0  0  0  0  0  0  0  0  0  0
  -15.7228  -30.1005    2.8422 F   0  0  0  0  0  0  0  0  0  0  0  0
  -19.8387  -22.3486    2.0677 H   0  0  0  0  0  0  0  0  0  0  0  0
  -18.5530  -19.4355    3.8608 H   0  0  0  0  0  0  0  0  0  0  0  0
  -18.0611  -20.4752    2.7720 H   0  0  0  0  0  0  0  0  0  0  0  0
  -17.6220  -22.0526    4.4706 H   0  0  0  0  0  0  0  0  0  0  0  0
  -18.5997  -20.1134    6.2675 H   0  0  0  0  0  0  0  0  0  0  0  0
  -18.6942  -21.6991    6.3889 H   0  0  0  0  0  0  0  0  0  0  0  0
  -16.5916  -21.8790    7.2272 H   0  0  0  0  0  0  0  0  0  0  0  0
  -16.8889  -20.3915    7.7314 H   0  0  0  0  0  0  0  0  0  0  0  0
  -15.0697  -20.0985    6.2283 H   0  0  0  0  0  0  0  0  0  0  0  0
  -19.4523  -24.6421    2.1912 H   0  0  0  0  0  0  0  0  0  0  0  0
  -19.9819  -27.6395    4.2495 H   0  0  0  0  0  0  0  0  0  0  0  0
  -20.6453  -26.6378    5.2974 H   0  0  0  0  0  0  0  0  0  0  0  0
  -22.4932  -26.7851    3.8068 H   0  0  0  0  0  0  0  0  0  0  0  0
  -22.2112  -24.7067    2.4482 H   0  0  0  0  0  0  0  0  0  0  0  0
  -18.3986  -27.2640    5.5234 H   0  0  0  0  0  0  0  0  0  0  0  0
  -15.7554  -26.9059    4.8601 H   0  0  0  0  0  0  0  0  0  0  0  0
  -15.8974  -24.9280    5.8326 H   0  0  0  0  0  0  0  0  0  0  0  0
  -15.5156  -25.3146    7.3195 H   0  0  0  0  0  0  0  0  0  0  0  0
  -16.5424  -24.1403    7.0459 H   0  0  0  0  0  0  0  0  0  0  0  0
  -19.3648  -25.3842    6.6557 H   0  0  0  0  0  0  0  0  0  0  0  0
  -18.4521  -24.3718    7.4625 H   0  0  0  0  0  0  0  0  0  0  0  0
  -18.9258  -25.7233    8.1382 H   0  0  0  0  0  0  0  0  0  0  0  0
  -23.2592  -26.4027    1.1985 H   0  0  0  0  0  0  0  0  0  0  0  0
  -22.9607  -27.9188    1.5296 H   0  0  0  0  0  0  0  0  0  0  0  0
  -22.3393  -27.2530    0.2348 H   0  0  0  0  0  0  0  0  0  0  0  0
  -19.3569  -26.6677    1.5590 H   0  0  0  0  0  0  0  0  0  0  0  0
  -20.1875  -27.4285    0.4555 H   0  0  0  0  0  0  0  0  0  0  0  0
  -19.9081  -28.1171    1.8505 H   0  0  0  0  0  0  0  0  0  0  0  0
  -17.0415  -28.0028    7.2506 H   0  0  0  0  0  0  0  0  0  0  0  0
  -17.6337  -27.1850    8.4717 H   0  0  0  0  0  0  0  0  0  0  0  0
  -16.1110  -27.0122    8.0669 H   0  0  0  0  0  0  0  0  0  0  0  0
  -20.3102  -21.0137    4.4460 H   0  0  0  0  0  0  0  0  0  0  0  0
  -22.0014  -18.6315    2.7259 H   0  0  0  0  0  0  0  0  0  0  0  0
  1  2  1  0  0  0  0
  1  6  2  0  0  0  0
  1 18  1  0  0  0  0
  2 36  1  0  0  0  0
  2  4  1  0  0  0  0
  4 67  1  0  0  0  0
  5 44  1  0  0  0  0
  4  7  1  0  0  0  0
  7 14  1  0  0  0  0
  4 10  1  0  0  0  0
 10 37  1  0  0  0  0
 10 38  1  0  0  0  0
 11 51  1  0  0  0  0
 10 13  1  0  0  0  0
 13 39  1  0  0  0  0
 14 68  1  0  0  0  0
 13 15  1  0  0  0  0
 15 16  1  0  0  0  0
 15 40  1  0  0  0  0
 15 41  1  0  0  0  0
  5 16  1  0  0  0  0
 16 42  1  0  0  0  0
 16 43  1  0  0  0  0
  3 17  2  0  0  0  0
  5 17  1  0  0  0  0
 13 17  1  0  0  0  0
  8 18  1  0  0  0  0
 18 21  1  0  0  0  0
 18 45  1  0  0  0  0
  8 19  1  0  0  0  0
 19 20  1  0  0  0  0
 19 46  1  0  0  0  0
 19 47  1  0  0  0  0
 20 21  1  0  0  0  0
 20 27  1  0  0  0  0
 20 48  1  0  0  0  0
 21 27  1  0  0  0  0
 21 49  1  0  0  0  0
  8 22  1  0  0  0  0
  9 22  2  0  0  0  0
 22 23  1  0  0  0  0
 11 23  1  0  0  0  0
 23 24  1  0  0  0  0
 23 50  1  0  0  0  0
 24 25  1  0  0  0  0
 25 52  1  0  0  0  0
 25 53  1  0  0  0  0
 25 54  1  0  0  0  0
 24 26  1  0  0  0  0
 26 55  1  0  0  0  0
 26 56  1  0  0  0  0
 26 57  1  0  0  0  0
 27 28  1  0  0  0  0
 27 29  1  0  0  0  0
 28 58  1  0  0  0  0
 28 59  1  0  0  0  0
 28 60  1  0  0  0  0
 29 61  1  0  0  0  0
 29 62  1  0  0  0  0
 29 63  1  0  0  0  0
 11 30  1  0  0  0  0
 12 30  2  0  0  0  0
 30 31  1  0  0  0  0
 31 33  1  0  0  0  0
 31 34  1  0  0  0  0
 31 35  1  0  0  0  0
 24 32  1  0  0  0  0
 32 64  1  0  0  0  0
 32 65  1  0  0  0  0
 32 66  1  0  0  0  0
 69 70  1  0  0  0  0
 69 74  2  0  0  0  0
 69 86  1  0  0  0  0
 70104  1  0  0  0  0
 70 72  1  0  0  0  0
 72135  1  0  0  0  0
 73112  1  0  0  0  0
 72 75  1  0  0  0  0
 75 82  1  0  0  0  0
 72 78  1  0  0  0  0
 78105  1  0  0  0  0
 78106  1  0  0  0  0
 79119  1  0  0  0  0
 78 81  1  0  0  0  0
 81107  1  0  0  0  0
 82136  1  0  0  0  0
 81 83  1  0  0  0  0
 83 84  1  0  0  0  0
 83108  1  0  0  0  0
 83109  1  0  0  0  0
 73 84  1  0  0  0  0
 84110  1  0  0  0  0
 84111  1  0  0  0  0
 71 85  2  0  0  0  0
 73 85  1  0  0  0  0
 81 85  1  0  0  0  0
 76 86  1  0  0  0  0
 86 89  1  0  0  0  0
 86113  1  0  0  0  0
 76 87  1  0  0  0  0
 87 88  1  0  0  0  0
 87114  1  0  0  0  0
 87115  1  0  0  0  0
 88 89  1  0  0  0  0
 88 95  1  0  0  0  0
 88116  1  0  0  0  0
 89 95  1  0  0  0  0
 89117  1  0  0  0  0
 76 90  1  0  0  0  0
 77 90  2  0  0  0  0
 90 91  1  0  0  0  0
 79 91  1  0  0  0  0
 91 92  1  0  0  0  0
 91118  1  0  0  0  0
 92 93  1  0  0  0  0
 93120  1  0  0  0  0
 93121  1  0  0  0  0
 93122  1  0  0  0  0
 92 94  1  0  0  0  0
 94123  1  0  0  0  0
 94124  1  0  0  0  0
 94125  1  0  0  0  0
 95 96  1  0  0  0  0
 95 97  1  0  0  0  0
 96126  1  0  0  0  0
 96127  1  0  0  0  0
 96128  1  0  0  0  0
 97129  1  0  0  0  0
 97130  1  0  0  0  0
 97131  1  0  0  0  0
 79 98  1  0  0  0  0
 80 98  2  0  0  0  0
 98 99  1  0  0  0  0
 99101  1  0  0  0  0
 99102  1  0  0  0  0
 99103  1  0  0  0  0
 92100  1  0  0  0  0
100132  1  0  0  0  0
100133  1  0  0  0  0
100134  1  0  0  0  0
M  END
$$$$
