5ST7
  PyMOL2.5          3D                             0

 32 34  0  0  0  0  0  0  0  0999 V2000
   61.6369   -2.5706    4.8386 N   0  3  0  0  0  0  0  0  0  0  0  0
   61.7198   -2.5564    4.6137 N   0  3  0  0  0  0  0  0  0  0  0  0
   62.5456   -5.2894    8.8622 C   0  0  0  0  0  0  0  0  0  0  0  0
   62.5866   -5.1926    8.8172 C   0  0  0  0  0  0  0  0  0  0  0  0
   62.8998   -0.9745    2.8260 O   0  0  0  0  0  0  0  0  0  0  0  0
   60.5870   -0.7857    2.6272 O   0  0  0  0  0  0  0  0  0  0  0  0
   61.4174   -4.5135    8.6349 C   0  0  0  0  0  0  0  0  0  0  0  0
   63.7201   -4.9586    8.0663 C   0  0  0  0  0  0  0  0  0  0  0  0
   58.9785   -1.6429    5.3186 O   0  0  0  0  0  0  0  0  0  0  0  0
   63.9229   -2.5974    1.7016 O   0  0  0  0  0  0  0  0  0  0  0  0
   61.4419   -3.5156    7.6757 C   0  0  0  0  0  0  0  0  0  0  0  0
   63.6982   -4.0026    7.0996 C   0  0  0  0  0  0  0  0  0  0  0  0
   59.8773    0.4144    5.2371 O   0  5  0  0  0  0  0  0  0  0  0  0
   63.8183   -3.8493    3.5217 O   0  5  0  0  0  0  0  0  0  0  0  0
   62.6022   -3.2990    6.9469 C   0  0  0  0  0  0  0  0  0  0  0  0
   62.5377   -3.2698    6.8676 C   0  0  0  0  0  0  0  0  0  0  0  0
   63.7374   -4.0737    7.1682 C   0  0  0  0  0  0  0  0  0  0  0  0
   61.4170   -3.5103    7.6161 C   0  0  0  0  0  0  0  0  0  0  0  0
   63.7030   -5.0696    8.1295 C   0  0  0  0  0  0  0  0  0  0  0  0
   61.4431   -4.4686    8.5905 C   0  0  0  0  0  0  0  0  0  0  0  0
   62.6583   -2.2163    5.9186 C   0  0  0  0  0  0  0  0  0  0  0  0
   62.5216   -2.1687    5.8358 C   0  0  0  0  0  0  0  0  0  0  0  0
   61.0609   -1.3497    4.1491 C   0  0  0  0  0  0  0  0  0  0  0  0
   62.2939   -2.0560    3.2895 C   0  0  0  0  0  0  0  0  0  0  0  0
   60.6494   -1.7147    2.7281 C   0  0  0  0  0  0  0  0  0  0  0  0
   62.7503   -0.6160    3.4215 C   0  0  0  0  0  0  0  0  0  0  0  0
   62.0013   -1.6853    1.9974 C   0  0  0  0  0  0  0  0  0  0  0  0
   61.5881    0.1534    2.8203 C   0  0  0  0  0  0  0  0  0  0  0  0
   62.1607   -0.3364    3.8434 C   0  0  0  0  0  0  0  0  0  0  0  0
   61.1975   -1.9526    2.2676 C   0  0  0  0  0  0  0  0  0  0  0  0
   59.8121   -0.7850    5.0122 C   0  0  0  0  0  0  0  0  0  0  0  0
   63.5047   -2.9567    2.7815 C   0  0  0  0  0  0  0  0  0  0  0  0
  3  7  4  0  0  0  0
  7 11  4  0  0  0  0
  4  8  4  0  0  0  0
  8 12  4  0  0  0  0
  9 31  4  0  0  0  0
 10 32  4  0  0  0  0
 13 31  4  0  0  0  0
 14 32  4  0  0  0  0
 11 15  4  0  0  0  0
 12 16  4  0  0  0  0
 15 17  4  0  0  0  0
 16 18  4  0  0  0  0
  3 19  4  0  0  0  0
 17 19  4  0  0  0  0
  4 20  4  0  0  0  0
 18 20  4  0  0  0  0
  1 21  1  0  0  0  0
 15 21  1  0  0  0  0
  2 22  1  0  0  0  0
 16 22  1  0  0  0  0
  1 23  1  0  0  0  0
 23 25  1  0  0  0  0
 23 29  1  0  0  0  0
 23 31  1  0  0  0  0
  2 24  1  0  0  0  0
 24 26  1  0  0  0  0
 24 30  1  0  0  0  0
 24 32  1  0  0  0  0
 25 27  1  0  0  0  0
 26 28  1  0  0  0  0
  5 27  1  0  0  0  0
  6 28  1  0  0  0  0
  5 29  1  0  0  0  0
  6 30  1  0  0  0  0
M  END
$$$$
