5STB
  PyMOL2.5          3D                             0

 22 22  0  0  0  0  0  0  0  0999 V2000
   16.8694   15.8841   16.5213 N   0  0  0  0  0  0  0  0  0  0  0  0
   18.9219   14.0580   18.8126 C   0  0  0  0  0  0  0  0  0  0  0  0
   18.2811   15.4093   18.6156 C   0  0  0  0  0  0  0  0  0  0  0  0
   17.1020   16.0348   15.2164 N   0  0  0  0  0  0  0  0  0  0  0  0
   18.0311   15.6325   17.1703 C   0  0  0  0  0  0  0  0  0  0  0  0
   19.0331   15.6234   16.2038 N   0  0  0  0  0  0  0  0  0  0  0  0
   18.4105   15.8857   14.9993 C   0  0  0  0  0  0  0  0  0  0  0  0
   20.3579   15.3322   16.4560 N   0  0  0  0  0  0  0  0  0  0  0  0
   17.9771   16.2829   12.3061 C   0  0  0  0  0  0  0  0  0  0  0  0
   17.8615   14.8870   11.7194 C   0  0  0  0  0  0  0  0  0  0  0  0
   19.2750   16.0851   13.5616 S   0  0  0  0  0  0  0  0  0  0  0  0
   -2.5685   21.8624  -46.0066 N   0  0  0  0  0  0  0  0  0  0  0  0
   -3.2512   19.2741  -48.0942 C   0  0  0  0  0  0  0  0  0  0  0  0
   -4.0059   20.4778  -47.5745 C   0  0  0  0  0  0  0  0  0  0  0  0
   -2.2684   21.8550  -44.7105 N   0  0  0  0  0  0  0  0  0  0  0  0
   -3.4295   20.8757  -46.2814 C   0  0  0  0  0  0  0  0  0  0  0  0
   -3.6981   20.2161  -45.0896 N   0  0  0  0  0  0  0  0  0  0  0  0
   -2.9348   20.8697  -44.1196 C   0  0  0  0  0  0  0  0  0  0  0  0
   -4.5393   19.1399  -45.0063 N   0  0  0  0  0  0  0  0  0  0  0  0
   -1.6585   21.7446  -42.0360 C   0  0  0  0  0  0  0  0  0  0  0  0
   -0.4394   20.9625  -41.6168 C   0  0  0  0  0  0  0  0  0  0  0  0
   -2.9047   20.5185  -42.4729 S   0  0  0  0  0  0  0  0  0  0  0  0
  2  3  1  0  0  0  0
  3  5  1  0  0  0  0
  1  4  4  0  0  0  0
  4  7  4  0  0  0  0
  1  5  4  0  0  0  0
  5  6  4  0  0  0  0
  6  7  4  0  0  0  0
  6  8  1  0  0  0  0
  7 11  1  0  0  0  0
  9 11  1  0  0  0  0
  9 10  1  0  0  0  0
 13 14  1  0  0  0  0
 14 16  1  0  0  0  0
 12 15  4  0  0  0  0
 15 18  4  0  0  0  0
 12 16  4  0  0  0  0
 16 17  4  0  0  0  0
 17 18  4  0  0  0  0
 17 19  1  0  0  0  0
 18 22  1  0  0  0  0
 20 22  1  0  0  0  0
 20 21  1  0  0  0  0
M  END
$$$$
