5STF
  PyMOL2.5          3D                             0

 14 14  0  0  0  0  0  0  0  0999 V2000
    7.7733   12.2901  -41.0201 N   0  0  0  0  0  0  0  0  0  0  0  0
    6.1327   15.4939  -40.9129 C   0  0  0  0  0  0  0  0  0  0  0  0
    6.1682   13.1667  -42.2877 O   0  0  0  0  0  0  0  0  0  0  0  0
    7.3232   15.7917  -41.8001 C   0  0  0  0  0  0  0  0  0  0  0  0
    9.7806   13.5164  -40.5771 N   0  0  0  0  0  0  0  0  0  0  0  0
    9.3741   11.4130  -39.7159 O   0  0  0  0  0  0  0  0  0  0  0  0
    8.0960   14.5167  -42.1365 C   0  0  0  0  0  0  0  0  0  0  0  0
   10.1557   15.5287  -41.4745 O   0  0  0  0  0  0  0  0  0  0  0  0
    7.2703   13.3003  -41.8408 C   0  0  0  0  0  0  0  0  0  0  0  0
    9.0045   12.3580  -40.3880 C   0  0  0  0  0  0  0  0  0  0  0  0
    9.4051   14.5811  -41.3944 C   0  0  0  0  0  0  0  0  0  0  0  0
   11.0761   13.6292  -39.8905 C   0  0  0  0  0  0  0  0  0  0  0  0
    8.3984   14.5506  -43.6541 C   0  0  0  0  0  0  0  0  0  0  0  0
    7.9320   13.2966  -44.3890 C   0  0  0  0  0  0  0  0  0  0  0  0
  2  4  1  0  0  0  0
  4  7  1  0  0  0  0
  5 10  1  0  0  0  0
  5 11  1  0  0  0  0
  5 12  1  0  0  0  0
  6 10  2  0  0  0  0
  1  9  1  0  0  0  0
  3  9  2  0  0  0  0
  7  9  1  0  0  0  0
  1 10  1  0  0  0  0
  7 11  1  0  0  0  0
  8 11  2  0  0  0  0
  7 13  1  0  0  0  0
 13 14  1  0  0  0  0
M  END
$$$$
