5STU
  PyMOL2.5          3D                             0

 15 15  0  0  0  0  0  0  0  0999 V2000
   33.6654   -9.4336   11.3743 N   0  0  0  0  0  0  0  0  0  0  0  0
   31.8043   -8.9450    6.6834 C   0  0  0  0  0  0  0  0  0  0  0  0
   32.4826   -7.7923    7.0882 O   0  0  0  0  0  0  0  0  0  0  0  0
   30.6850  -10.8176   13.5892 Cl  0  0  0  0  0  0  0  0  0  0  0  0
   33.4439   -7.9022    8.0390 C   0  0  0  0  0  0  0  0  0  0  0  0
   36.7207   -6.7168    8.8675 O   0  0  0  0  0  0  0  0  0  0  0  0
   33.0644   -8.6315    9.1688 C   0  0  0  0  0  0  0  0  0  0  0  0
   31.3818   -9.5798   11.1884 O   0  0  0  0  0  0  0  0  0  0  0  0
   33.9907   -8.7054   10.2127 C   0  0  0  0  0  0  0  0  0  0  0  0
   35.2358   -8.0978   10.1569 C   0  0  0  0  0  0  0  0  0  0  0  0
   35.5583   -7.4035    9.0243 C   0  0  0  0  0  0  0  0  0  0  0  0
   34.6832   -7.2939    7.9401 C   0  0  0  0  0  0  0  0  0  0  0  0
   37.6126   -6.7283    9.9477 C   0  0  0  0  0  0  0  0  0  0  0  0
   32.4194   -9.8176   11.7775 C   0  0  0  0  0  0  0  0  0  0  0  0
   32.4178  -10.5964   13.0684 C   0  0  0  0  0  0  0  0  0  0  0  0
  2  3  1  0  0  0  0
  3  5  1  0  0  0  0
  5  7  4  0  0  0  0
  5 12  4  0  0  0  0
  6 11  1  0  0  0  0
  1  9  1  0  0  0  0
  7  9  4  0  0  0  0
  9 10  4  0  0  0  0
 10 11  4  0  0  0  0
 11 12  4  0  0  0  0
  6 13  1  0  0  0  0
  1 14  1  0  0  0  0
  8 14  2  0  0  0  0
 14 15  1  0  0  0  0
  4 15  1  0  0  0  0
M  END
$$$$
