5SU1
  PyMOL2.5          3D                             0

 16 16  0  0  0  0  0  0  0  0999 V2000
   36.9012   65.1707   17.9910 N   0  0  0  0  0  0  0  0  0  0  0  0
   39.2006   64.5488   17.4950 C   0  0  0  0  0  0  0  0  0  0  0  0
   36.1973   65.7962   18.8946 O   0  0  0  0  0  0  0  0  0  0  0  0
   38.1620   65.2073   18.2920 C   0  0  0  0  0  0  0  0  0  0  0  0
   39.4056   65.8977   21.6767 N   0  0  0  0  0  0  0  0  0  0  0  0
   39.7722   68.0563   22.5237 O   0  0  0  0  0  0  0  0  0  0  0  0
   38.2834   65.9519   19.5054 C   0  0  0  0  0  0  0  0  0  0  0  0
   39.0792   64.9304   24.3193 N   0  3  0  0  0  0  0  0  0  0  0  0
   37.0326   66.2716   19.8362 C   0  0  0  0  0  0  0  0  0  0  0  0
   36.4786   66.9528   20.9893 C   0  0  0  0  0  0  0  0  0  0  0  0
   39.5141   66.2939   20.2470 C   0  0  0  0  0  0  0  0  0  0  0  0
   40.3075   64.7878   21.8888 C   0  0  0  0  0  0  0  0  0  0  0  0
   39.5742   66.9041   22.7116 C   0  0  0  0  0  0  0  0  0  0  0  0
   39.5050   66.3883   24.1977 C   0  0  0  0  0  0  0  0  0  0  0  0
   40.8790   66.5057   24.8172 C   0  0  0  0  0  0  0  0  0  0  0  0
   38.4715   67.1073   25.0112 C   0  0  0  0  0  0  0  0  0  0  0  0
  1  3  4  0  0  0  0
  1  4  4  0  0  0  0
  2  4  1  0  0  0  0
  4  7  4  0  0  0  0
  5 11  1  0  0  0  0
  5 12  1  0  0  0  0
  5 13  1  0  0  0  0
  3  9  4  0  0  0  0
  7  9  4  0  0  0  0
  9 10  1  0  0  0  0
  7 11  1  0  0  0  0
  6 13  2  0  0  0  0
 13 14  1  0  0  0  0
  8 14  1  0  0  0  0
 14 15  1  0  0  0  0
 14 16  1  0  0  0  0
M  END
$$$$
