5SU3
  PyMOL2.5          3D                             0

 14 15  0  0  0  0  0  0  0  0999 V2000
   53.7105   36.7826   -5.8838 N   0  0  0  0  0  0  0  0  0  0  0  0
   53.8389   38.8624   -4.8718 C   0  0  0  0  0  0  0  0  0  0  0  0
   53.7320   34.9507   -4.7160 O   0  0  0  0  0  0  0  0  0  0  0  0
   54.1885   35.9281   -2.1383 Cl  0  0  0  0  0  0  0  0  0  0  0  0
   53.9175   38.2537   -3.5577 C   0  0  0  0  0  0  0  0  0  0  0  0
   53.7573   38.1523   -5.9605 N   0  0  0  0  0  0  0  0  0  0  0  0
   54.8943   40.1429   -0.1389 O   0  0  0  0  0  0  0  0  0  0  0  0
   53.9208   36.8986   -3.5123 C   0  0  0  0  0  0  0  0  0  0  0  0
   53.9112   39.0925   -2.4629 N   0  0  0  0  0  0  0  0  0  0  0  0
   53.7851   36.1021   -4.6804 C   0  0  0  0  0  0  0  0  0  0  0  0
   54.4336   40.4655   -2.4808 C   0  0  0  0  0  0  0  0  0  0  0  0
   55.4605   40.5742   -1.3430 C   0  0  0  0  0  0  0  0  0  0  0  0
   54.5432   38.7895   -0.1600 C   0  0  0  0  0  0  0  0  0  0  0  0
   53.4640   38.5425   -1.1551 C   0  0  0  0  0  0  0  0  0  0  0  0
  2  5  4  0  0  0  0
  5  8  4  0  0  0  0
  1  6  4  0  0  0  0
  2  6  4  0  0  0  0
  7 12  1  0  0  0  0
  7 13  1  0  0  0  0
  4  8  1  0  0  0  0
  5  9  1  0  0  0  0
  9 11  1  0  0  0  0
  1 10  4  0  0  0  0
  3 10  2  0  0  0  0
  8 10  4  0  0  0  0
 11 12  1  0  0  0  0
  9 14  1  0  0  0  0
 13 14  1  0  0  0  0
M  END
$$$$
