7FJU
  PyMOL2.5          3D                             0

 28 28  0  0  0  0  0  0  0  0999 V2000
  -20.6322   -9.8905  -12.5314 N   0  3  0  0  0  0  0  0  0  0  0  0
  -15.7312  -10.4935   -9.3504 C   0  0  0  0  0  0  0  0  0  0  0  0
  -20.3646  -13.0264   -9.4882 O   0  0  0  0  0  0  0  0  0  0  0  0
  -15.9989  -10.3095   -8.0105 C   0  0  0  0  0  0  0  0  0  0  0  0
  -20.8035  -12.7131  -11.6478 O   0  5  0  0  0  0  0  0  0  0  0  0
  -17.1966   -9.7629   -7.6056 C   0  0  0  0  0  0  0  0  0  0  0  0
  -18.1077   -9.4007   -8.5774 C   0  0  0  0  0  0  0  0  0  0  0  0
  -17.8399   -9.5773   -9.9525 C   0  0  0  0  0  0  0  0  0  0  0  0
  -16.6430  -10.1315  -10.3116 C   0  0  0  0  0  0  0  0  0  0  0  0
  -18.7857   -9.1646  -11.0290 C   0  0  0  0  0  0  0  0  0  0  0  0
  -19.6063  -10.3734  -11.4328 C   0  0  0  0  0  0  0  0  0  0  0  0
  -20.3997  -10.8145  -10.2768 C   0  0  0  0  0  0  0  0  0  0  0  0
  -20.5451  -12.3950  -10.5047 C   0  0  0  0  0  0  0  0  0  0  0  0
  -19.2284   -8.8511   -8.1621 F   0  0  0  0  0  0  0  0  0  0  0  0
   60.6889    3.5984   -2.6224 N   0  3  0  0  0  0  0  0  0  0  0  0
   60.7456    2.2792    1.2533 C   0  0  0  0  0  0  0  0  0  0  0  0
   60.8349    4.3638   -4.8061 O   0  0  0  0  0  0  0  0  0  0  0  0
   61.2006    1.1434    1.8746 C   0  0  0  0  0  0  0  0  0  0  0  0
   60.2187    2.6600   -6.1468 O   0  5  0  0  0  0  0  0  0  0  0  0
   61.5191    0.0214    1.1526 C   0  0  0  0  0  0  0  0  0  0  0  0
   61.3679    0.0653   -0.2238 C   0  0  0  0  0  0  0  0  0  0  0  0
   60.9184    1.1747   -0.8611 C   0  0  0  0  0  0  0  0  0  0  0  0
   60.6132    2.2925   -0.1138 C   0  0  0  0  0  0  0  0  0  0  0  0
   60.8052    1.1176   -2.3171 C   0  0  0  0  0  0  0  0  0  0  0  0
   61.5691    2.3061   -2.9289 C   0  0  0  0  0  0  0  0  0  0  0  0
   61.8203    2.1788   -4.4179 C   0  0  0  0  0  0  0  0  0  0  0  0
   60.8222    3.2013   -5.2243 C   0  0  0  0  0  0  0  0  0  0  0  0
   61.6856   -0.9705   -0.9639 F   0  0  0  0  0  0  0  0  0  0  0  0
  2  4  4  0  0  0  0
  4  6  4  0  0  0  0
  6  7  4  0  0  0  0
  7 14  1  0  0  0  0
  7  8  4  0  0  0  0
  2  9  4  0  0  0  0
  8  9  4  0  0  0  0
  8 10  1  0  0  0  0
  1 11  1  0  0  0  0
 10 11  1  0  0  0  0
 11 12  1  0  0  0  0
 12 13  1  0  0  0  0
  3 13  4  0  0  0  0
  5 13  4  0  0  0  0
 16 18  4  0  0  0  0
 18 20  4  0  0  0  0
 20 21  4  0  0  0  0
 21 28  1  0  0  0  0
 21 22  4  0  0  0  0
 16 23  4  0  0  0  0
 22 23  4  0  0  0  0
 22 24  1  0  0  0  0
 15 25  1  0  0  0  0
 24 25  1  0  0  0  0
 25 26  1  0  0  0  0
 26 27  1  0  0  0  0
 17 27  4  0  0  0  0
 19 27  4  0  0  0  0
M  END
$$$$
