7FJV
  PyMOL2.5          3D                             0

 14 14  0  0  0  0  0  0  0  0999 V2000
    4.1790   16.3938   42.4906 N   0  3  0  0  0  0  0  0  0  0  0  0
    8.8445   16.6521   41.6686 C   0  0  0  0  0  0  0  0  0  0  0  0
    3.5011   13.7710   38.5682 O   0  5  0  0  0  0  0  0  0  0  0  0
    9.0788   16.3675   43.0044 C   0  0  0  0  0  0  0  0  0  0  0  0
    3.8511   15.8955   38.1776 O   0  0  0  0  0  0  0  0  0  0  0  0
    8.1725   15.6235   43.7284 C   0  0  0  0  0  0  0  0  0  0  0  0
    7.0269   15.1632   43.0831 C   0  0  0  0  0  0  0  0  0  0  0  0
    6.7835   15.4332   41.7479 C   0  0  0  0  0  0  0  0  0  0  0  0
    7.6970   16.1923   41.0374 C   0  0  0  0  0  0  0  0  0  0  0  0
    5.6008   14.8656   41.0966 C   0  0  0  0  0  0  0  0  0  0  0  0
    4.5207   15.9323   41.0684 C   0  0  0  0  0  0  0  0  0  0  0  0
    3.3010   15.3002   40.4386 C   0  0  0  0  0  0  0  0  0  0  0  0
    3.5904   14.9904   38.9425 C   0  0  0  0  0  0  0  0  0  0  0  0
    6.1600   14.4475   43.7566 F   0  0  0  0  0  0  0  0  0  0  0  0
  2  4  4  0  0  0  0
  4  6  4  0  0  0  0
  6  7  4  0  0  0  0
  7 14  1  0  0  0  0
  7  8  4  0  0  0  0
  2  9  4  0  0  0  0
  8  9  4  0  0  0  0
  8 10  1  0  0  0  0
  1 11  1  0  0  0  0
 10 11  1  0  0  0  0
 11 12  1  0  0  0  0
 12 13  1  0  0  0  0
  3 13  4  0  0  0  0
  5 13  4  0  0  0  0
M  END
$$$$
