7FJY
  PyMOL2.5          3D                             0

 15 16  0  0  0  0  0  0  0  0999 V2000
   -3.8615   -4.8584  -45.7129 N   0  0  0  0  0  0  0  0  0  0  0  0
   -6.9330   -5.6309  -44.2002 C   0  0  0  0  0  0  0  0  0  0  0  0
   -9.5263   -7.6118  -51.8277 O   0  0  0  0  0  0  0  0  0  0  0  0
   -7.3562   -6.7202  -44.9289 C   0  0  0  0  0  0  0  0  0  0  0  0
   -7.7840   -7.7383  -48.0273 N   0  3  0  0  0  0  0  0  0  0  0  0
   -6.6026   -7.1936  -45.9527 C   0  0  0  0  0  0  0  0  0  0  0  0
   -5.3989   -6.5983  -46.2494 C   0  0  0  0  0  0  0  0  0  0  0  0
   -5.0045   -5.4844  -45.4707 C   0  0  0  0  0  0  0  0  0  0  0  0
   -5.8006   -5.0159  -44.4531 C   0  0  0  0  0  0  0  0  0  0  0  0
   -7.1051   -8.3390  -46.7735 C   0  0  0  0  0  0  0  0  0  0  0  0
   -6.8706   -7.6252  -49.2148 C   0  0  0  0  0  0  0  0  0  0  0  0
   -7.6370   -7.8187  -50.5348 C   0  0  0  0  0  0  0  0  0  0  0  0
   -8.9981   -7.0913  -50.6255 C   0  0  0  0  0  0  0  0  0  0  0  0
   -9.8679   -7.4922  -49.4303 C   0  0  0  0  0  0  0  0  0  0  0  0
   -9.1090   -8.3751  -48.4173 C   0  0  0  0  0  0  0  0  0  0  0  0
  2  4  4  0  0  0  0
  4  6  4  0  0  0  0
  5 10  1  0  0  0  0
  5 11  1  0  0  0  0
  5 15  1  0  0  0  0
  6  7  4  0  0  0  0
  1  8  1  0  0  0  0
  7  8  4  0  0  0  0
  2  9  4  0  0  0  0
  8  9  4  0  0  0  0
  6 10  1  0  0  0  0
 11 12  1  0  0  0  0
 12 13  1  0  0  0  0
  3 13  1  0  0  0  0
 13 14  1  0  0  0  0
 14 15  1  0  0  0  0
M  END
$$$$
