7FK0
  PyMOL2.5          3D                             0

 15 15  0  0  0  0  0  0  0  0999 V2000
   52.4839   47.9174    9.8146 N   0  0  0  0  0  0  0  0  0  0  0  0
   47.4556   46.4197   10.0784 C   0  0  0  0  0  0  0  0  0  0  0  0
   53.7948   49.3356    9.1154 O   0  0  0  0  0  0  0  0  0  0  0  0
   48.7218   46.9044    9.8808 C   0  0  0  0  0  0  0  0  0  0  0  0
   55.8088   46.1030   10.1878 N   0  0  0  0  0  0  0  0  0  0  0  0
   53.4117   49.7158   11.2380 O   0  0  0  0  0  0  0  0  0  0  0  0
   49.2803   47.2554   10.9919 C   0  0  0  0  0  0  0  0  0  0  0  0
   50.5154   47.5778   11.0162 C   0  0  0  0  0  0  0  0  0  0  0  0
   51.2813   47.5071    9.9093 C   0  0  0  0  0  0  0  0  0  0  0  0
   50.7957   47.1937    8.6951 C   0  0  0  0  0  0  0  0  0  0  0  0
   49.5160   46.9361    8.6649 C   0  0  0  0  0  0  0  0  0  0  0  0
   54.6446   47.8855   10.8313 C   0  0  0  0  0  0  0  0  0  0  0  0
   54.9517   47.0161    9.6614 C   0  0  0  0  0  0  0  0  0  0  0  0
   49.0299   46.6113    7.6153 F   0  0  0  0  0  0  0  0  0  0  0  0
   53.5522   48.8819   10.3328 S   0  0  0  0  0  0  0  0  0  0  0  0
  2  4  1  0  0  0  0
  4  7  4  0  0  0  0
  4 11  4  0  0  0  0
  5 13  2  0  0  0  0
  6 15  2  0  0  0  0
  7  8  4  0  0  0  0
  1  9  1  0  0  0  0
  8  9  4  0  0  0  0
  9 10  4  0  0  0  0
 10 11  4  0  0  0  0
 11 14  1  0  0  0  0
 12 13  1  0  0  0  0
 12 15  1  0  0  0  0
  1 15  1  0  0  0  0
  3 15  2  0  0  0  0
M  END
$$$$
