7FK4
  PyMOL2.5          3D                             0

 30 32  0  0  0  0  0  0  0  0999 V2000
    3.7566   16.2055   15.9145 N   0  0  0  0  0  0  0  0  0  0  0  0
    3.9803   20.0723   12.0919 C   0  0  0  0  0  0  0  0  0  0  0  0
    5.0576   14.7502   14.7358 O   0  0  0  0  0  0  0  0  0  0  0  0
    4.2648   18.6815   12.4522 C   0  0  0  0  0  0  0  0  0  0  0  0
    2.4409   18.0452   17.8641 N   0  3  0  0  0  0  0  0  0  0  0  0
    4.1886   18.1330   13.6958 C   0  0  0  0  0  0  0  0  0  0  0  0
    4.5064   16.7423   13.6414 C   0  0  0  0  0  0  0  0  0  0  0  0
    4.8079   16.3286   12.3941 C   0  0  0  0  0  0  0  0  0  0  0  0
    4.4987   15.8174   14.7432 C   0  0  0  0  0  0  0  0  0  0  0  0
    2.3999   16.7178   15.7104 C   0  0  0  0  0  0  0  0  0  0  0  0
    2.2348   18.1245   16.3465 C   0  0  0  0  0  0  0  0  0  0  0  0
    3.6094   17.1179   18.2212 C   0  0  0  0  0  0  0  0  0  0  0  0
    4.4900   16.9037   16.9705 C   0  0  0  0  0  0  0  0  0  0  0  0
    2.6783   19.4327   18.4362 C   0  0  0  0  0  0  0  0  0  0  0  0
    4.7185   17.5471   11.2731 S   0  0  0  0  0  0  0  0  0  0  0  0
   42.1955   56.0126  -41.7212 N   0  0  0  0  0  0  0  0  0  0  0  0
   37.5480   59.9262  -41.4123 C   0  0  0  0  0  0  0  0  0  0  0  0
   40.1477   55.2605  -42.3845 O   0  0  0  0  0  0  0  0  0  0  0  0
   38.8136   59.2317  -41.6248 C   0  0  0  0  0  0  0  0  0  0  0  0
   44.8998   55.6493  -41.0313 N   0  3  0  0  0  0  0  0  0  0  0  0
   38.9658   57.8994  -41.6953 C   0  0  0  0  0  0  0  0  0  0  0  0
   40.3298   57.5562  -41.8841 C   0  0  0  0  0  0  0  0  0  0  0  0
   41.1501   58.6468  -41.9440 C   0  0  0  0  0  0  0  0  0  0  0  0
   40.8096   56.2077  -42.0296 C   0  0  0  0  0  0  0  0  0  0  0  0
   42.6507   56.6238  -40.4836 C   0  0  0  0  0  0  0  0  0  0  0  0
   44.1626   56.9127  -40.5593 C   0  0  0  0  0  0  0  0  0  0  0  0
   43.9710   54.4055  -41.0248 C   0  0  0  0  0  0  0  0  0  0  0  0
   42.7710   54.6800  -41.9636 C   0  0  0  0  0  0  0  0  0  0  0  0
   46.1499   55.4219  -40.1884 C   0  0  0  0  0  0  0  0  0  0  0  0
   40.2942   60.0671  -41.7859 S   0  0  0  0  0  0  0  0  0  0  0  0
  2  4  1  0  0  0  0
  4  6  4  0  0  0  0
  4 15  4  0  0  0  0
  5 11  1  0  0  0  0
  5 12  1  0  0  0  0
  5 14  1  0  0  0  0
  6  7  4  0  0  0  0
  7  8  4  0  0  0  0
  8 15  4  0  0  0  0
  1  9  1  0  0  0  0
  3  9  2  0  0  0  0
  7  9  1  0  0  0  0
  1 10  1  0  0  0  0
 10 11  1  0  0  0  0
 12 13  1  0  0  0  0
  1 13  1  0  0  0  0
 17 19  1  0  0  0  0
 19 21  4  0  0  0  0
 19 30  4  0  0  0  0
 20 26  1  0  0  0  0
 20 27  1  0  0  0  0
 20 29  1  0  0  0  0
 21 22  4  0  0  0  0
 22 23  4  0  0  0  0
 23 30  4  0  0  0  0
 16 24  1  0  0  0  0
 18 24  2  0  0  0  0
 22 24  1  0  0  0  0
 16 25  1  0  0  0  0
 25 26  1  0  0  0  0
 27 28  1  0  0  0  0
 16 28  1  0  0  0  0
M  END
$$$$
