7FK8
  PyMOL2.5          3D                             0

 16 17  0  0  0  0  0  0  0  0999 V2000
   54.4824   17.2763   40.9185 N   0  0  0  0  0  0  0  0  0  0  0  0
   55.7557   16.6514   40.6953 C   0  0  0  0  0  0  0  0  0  0  0  0
   54.4665   19.1815   39.5856 O   0  0  0  0  0  0  0  0  0  0  0  0
   51.9521   15.5507   34.5832 Cl  0  0  0  0  0  0  0  0  0  0  0  0
   53.4463   16.6011   41.4545 C   0  0  0  0  0  0  0  0  0  0  0  0
   52.3167   17.1142   41.0512 N   0  0  0  0  0  0  0  0  0  0  0  0
   53.9227   18.2823   40.1199 C   0  0  0  0  0  0  0  0  0  0  0  0
   52.5796   18.1371   40.1802 N   0  0  0  0  0  0  0  0  0  0  0  0
   51.8358   18.1748   38.8475 C   0  0  0  0  0  0  0  0  0  0  0  0
   51.9471   16.9490   38.0366 C   0  0  0  0  0  0  0  0  0  0  0  0
   52.1967   15.8540   38.6927 C   0  0  0  0  0  0  0  0  0  0  0  0
   52.3189   14.6618   38.2001 C   0  0  0  0  0  0  0  0  0  0  0  0
   52.1731   14.4791   36.8852 C   0  0  0  0  0  0  0  0  0  0  0  0
   51.9784   15.6182   36.1009 C   0  0  0  0  0  0  0  0  0  0  0  0
   51.8375   16.8541   36.6420 C   0  0  0  0  0  0  0  0  0  0  0  0
   52.1550   13.2648   36.5068 F   0  0  0  0  0  0  0  0  0  0  0  0
  1  2  1  0  0  0  0
  1  5  1  0  0  0  0
  5  6  1  0  0  0  0
  6  8  1  0  0  0  0
  1  7  1  0  0  0  0
  3  7  2  0  0  0  0
  7  8  1  0  0  0  0
  8  9  1  0  0  0  0
  9 10  1  0  0  0  0
 10 11  4  0  0  0  0
 11 12  4  0  0  0  0
 12 13  4  0  0  0  0
 13 14  4  0  0  0  0
 13 16  1  0  0  0  0
  4 14  1  0  0  0  0
 14 15  4  0  0  0  0
 10 15  4  0  0  0  0
M  END
$$$$
