7FKC
  PyMOL2.5          3D                             0

 13 13  0  0  0  0  0  0  0  0999 V2000
   32.9976  -13.7138   31.3279 N   0  3  0  0  0  0  0  0  0  0  0  0
   32.9912  -12.2279   31.0499 C   0  0  0  0  0  0  0  0  0  0  0  0
   32.6986  -16.0924   29.3671 O   0  0  0  0  0  0  0  0  0  0  0  0
   34.0173  -14.3995   30.4392 C   0  0  0  0  0  0  0  0  0  0  0  0
   34.1723  -16.7601   30.9185 N   0  0  0  0  0  0  0  0  0  0  0  0
   33.5528  -15.8444   30.1862 C   0  0  0  0  0  0  0  0  0  0  0  0
   33.9896  -17.3815   33.1688 N   0  0  0  0  0  0  0  0  0  0  0  0
   35.5519  -16.4962   31.2403 C   0  0  0  0  0  0  0  0  0  0  0  0
   33.4011  -17.3415   31.9595 C   0  0  0  0  0  0  0  0  0  0  0  0
   32.1659  -17.8495   31.6593 C   0  0  0  0  0  0  0  0  0  0  0  0
   31.4786  -18.4818   32.6791 C   0  0  0  0  0  0  0  0  0  0  0  0
   32.0483  -18.5616   33.9239 C   0  0  0  0  0  0  0  0  0  0  0  0
   33.3047  -17.9932   34.1281 C   0  0  0  0  0  0  0  0  0  0  0  0
  1  2  1  0  0  0  0
  1  4  1  0  0  0  0
  4  6  1  0  0  0  0
  5  6  1  0  0  0  0
  5  8  1  0  0  0  0
  5  9  1  0  0  0  0
  3  6  2  0  0  0  0
  7  9  4  0  0  0  0
  9 10  4  0  0  0  0
 10 11  4  0  0  0  0
 11 12  4  0  0  0  0
 12 13  4  0  0  0  0
  7 13  4  0  0  0  0
M  END
$$$$
