7FKI
  PyMOL2.5          3D                             0

 18 18  0  0  0  0  0  0  0  0999 V2000
   20.9625   43.7187   -6.7123 C   0  0  0  0  0  0  0  0  0  0  0  0
   20.4491   44.8729   -9.5157 O   0  0  0  0  0  0  0  0  0  0  0  0
   21.0266   44.1891   -5.4059 C   0  0  0  0  0  0  0  0  0  0  0  0
   18.2794   44.4142   -9.5845 O   0  0  0  0  0  0  0  0  0  0  0  0
   19.9351   44.0365   -4.5968 C   0  0  0  0  0  0  0  0  0  0  0  0
   18.6956   41.8854   -8.9432 O   0  0  0  0  0  0  0  0  0  0  0  0
   18.8503   43.3577   -5.0231 C   0  0  0  0  0  0  0  0  0  0  0  0
   18.7618   42.8941   -6.3181 C   0  0  0  0  0  0  0  0  0  0  0  0
   19.8374   43.0923   -7.1777 C   0  0  0  0  0  0  0  0  0  0  0  0
   19.7224   42.7972   -8.6463 C   0  0  0  0  0  0  0  0  0  0  0  0
   19.4637   44.1394   -9.3181 C   0  0  0  0  0  0  0  0  0  0  0  0
   17.9506   42.9795   -4.1149 F   0  0  0  0  0  0  0  0  0  0  0  0
   19.9084   44.5874   -3.3817 F   0  0  0  0  0  0  0  0  0  0  0  0
   20.6215   42.3133   -9.0256 H   0  0  0  0  0  0  0  0  0  0  0  0
   21.8147   43.8481   -7.3788 H   0  0  0  0  0  0  0  0  0  0  0  0
   21.9314   44.6698   -5.0349 H   0  0  0  0  0  0  0  0  0  0  0  0
   17.8655   42.3820   -6.6640 H   0  0  0  0  0  0  0  0  0  0  0  0
   18.9865   41.3441   -9.7227 H   0  0  0  0  0  0  0  0  0  0  0  0
  1 15  1  0  0  0  0
  1  3  4  0  0  0  0
  3  5  4  0  0  0  0
  3 16  1  0  0  0  0
  5 13  1  0  0  0  0
  6 18  1  0  0  0  0
  5  7  4  0  0  0  0
  7 12  1  0  0  0  0
  7  8  4  0  0  0  0
  8 17  1  0  0  0  0
  1  9  4  0  0  0  0
  8  9  4  0  0  0  0
  9 10  1  0  0  0  0
  6 10  1  0  0  0  0
 10 14  1  0  0  0  0
  2 11  4  0  0  0  0
  4 11  4  0  0  0  0
 10 11  1  0  0  0  0
M  END
$$$$
