7FKL
  PyMOL2.5          3D                             0

 13 13  0  0  0  0  0  0  0  0999 V2000
   29.6751  -15.0835   22.9741 N   0  0  0  0  0  0  0  0  0  0  0  0
   29.8132  -14.1718   25.5069 C   0  0  0  0  0  0  0  0  0  0  0  0
   30.3280  -13.1584   22.1142 O   0  0  0  0  0  0  0  0  0  0  0  0
   29.6560  -13.0959   24.4278 C   0  0  0  0  0  0  0  0  0  0  0  0
   29.9117  -15.7454   21.7916 N   0  0  0  0  0  0  0  0  0  0  0  0
   28.4449  -12.2977   24.5489 O   0  0  0  0  0  0  0  0  0  0  0  0
   29.8936  -13.7520   23.0630 C   0  0  0  0  0  0  0  0  0  0  0  0
   27.2557  -12.4889   23.8891 C   0  0  0  0  0  0  0  0  0  0  0  0
   26.1335  -12.5249   24.6441 C   0  0  0  0  0  0  0  0  0  0  0  0
   24.8940  -12.4581   24.0394 C   0  0  0  0  0  0  0  0  0  0  0  0
   24.7969  -12.3558   22.7124 C   0  0  0  0  0  0  0  0  0  0  0  0
   25.9502  -12.3558   21.9656 C   0  0  0  0  0  0  0  0  0  0  0  0
   27.1892  -12.4393   22.5383 C   0  0  0  0  0  0  0  0  0  0  0  0
  2  4  1  0  0  0  0
  4  7  1  0  0  0  0
  1  5  1  0  0  0  0
  4  6  1  0  0  0  0
  6  8  1  0  0  0  0
  1  7  1  0  0  0  0
  3  7  2  0  0  0  0
  8  9  4  0  0  0  0
  9 10  4  0  0  0  0
 10 11  4  0  0  0  0
 11 12  4  0  0  0  0
 12 13  4  0  0  0  0
  8 13  4  0  0  0  0
M  END
$$$$
