7FKQ
  PyMOL2.5          3D                             0

 60 64  0  0  0  0  0  0  0  0999 V2000
   46.0885  -15.1389   19.7350 N   0  0  0  0  0  0  0  0  0  0  0  0
   45.8513  -15.0850   19.7882 N   0  0  0  0  0  0  0  0  0  0  0  0
   50.5257  -10.5631   16.4322 C   0  0  0  0  0  0  0  0  0  0  0  0
   50.5048  -10.5733   16.5019 C   0  0  0  0  0  0  0  0  0  0  0  0
   50.1063  -10.5214   17.7670 O   0  0  0  0  0  0  0  0  0  0  0  0
   49.9189  -10.5889   17.7565 O   0  0  0  0  0  0  0  0  0  0  0  0
   47.3028  -12.6859   21.3488 Cl  0  0  0  0  0  0  0  0  0  0  0  0
   46.5683  -14.2374   16.5016 Cl  0  0  0  0  0  0  0  0  0  0  0  0
   49.1113  -11.3702   18.1449 C   0  0  0  0  0  0  0  0  0  0  0  0
   48.8587  -11.4240   17.9758 C   0  0  0  0  0  0  0  0  0  0  0  0
   47.1783  -16.7563   20.8036 N   0  0  0  0  0  0  0  0  0  0  0  0
   46.9806  -16.6977   20.6766 N   0  0  0  0  0  0  0  0  0  0  0  0
   48.4835  -12.0889   17.1063 C   0  0  0  0  0  0  0  0  0  0  0  0
   48.3238  -11.2389   19.2597 C   0  0  0  0  0  0  0  0  0  0  0  0
   45.1430  -16.0760   19.9976 N   0  0  0  0  0  0  0  0  0  0  0  0
   44.9814  -16.0486   19.9634 N   0  0  0  0  0  0  0  0  0  0  0  0
   47.4197  -12.9347   17.3932 C   0  0  0  0  0  0  0  0  0  0  0  0
   47.2462  -12.0018   19.6770 C   0  0  0  0  0  0  0  0  0  0  0  0
   46.9803  -13.0842   18.7101 C   0  0  0  0  0  0  0  0  0  0  0  0
   46.6730  -12.9709   18.7814 C   0  0  0  0  0  0  0  0  0  0  0  0
   47.6670  -12.3926   19.6980 C   0  0  0  0  0  0  0  0  0  0  0  0
   47.2293  -13.0988   17.5494 C   0  0  0  0  0  0  0  0  0  0  0  0
   48.7074  -11.5219   19.4556 C   0  0  0  0  0  0  0  0  0  0  0  0
   48.3017  -12.3988   17.0890 C   0  0  0  0  0  0  0  0  0  0  0  0
   45.7484  -13.8885   19.0200 C   0  0  0  0  0  0  0  0  0  0  0  0
   45.4832  -13.8024   19.1673 C   0  0  0  0  0  0  0  0  0  0  0  0
   47.3282  -15.5516   20.2246 C   0  0  0  0  0  0  0  0  0  0  0  0
   47.0605  -15.4821   20.2242 C   0  0  0  0  0  0  0  0  0  0  0  0
   45.8185  -17.0505   20.6453 C   0  0  0  0  0  0  0  0  0  0  0  0
   45.6803  -17.0200   20.5022 C   0  0  0  0  0  0  0  0  0  0  0  0
   63.2732    3.3243    8.0735 N   0  0  0  0  0  0  0  0  0  0  0  0
   58.9853    2.2812   13.7404 C   0  0  0  0  0  0  0  0  0  0  0  0
   59.3105    3.4280   13.0335 O   0  0  0  0  0  0  0  0  0  0  0  0
   62.2569    0.7709    9.8739 Cl  0  0  0  0  0  0  0  0  0  0  0  0
   60.2673    3.3332   12.1020 C   0  0  0  0  0  0  0  0  0  0  0  0
   63.0618    2.2533    6.1510 N   0  0  0  0  0  0  0  0  0  0  0  0
   60.8135    4.5387   11.7517 C   0  0  0  0  0  0  0  0  0  0  0  0
   62.7725    4.2429    7.2310 N   0  0  0  0  0  0  0  0  0  0  0  0
   61.8392    4.5935   10.8763 C   0  0  0  0  0  0  0  0  0  0  0  0
   62.3562    3.4679   10.3047 C   0  0  0  0  0  0  0  0  0  0  0  0
   61.7672    2.2583   10.6262 C   0  0  0  0  0  0  0  0  0  0  0  0
   60.7319    2.1547   11.5319 C   0  0  0  0  0  0  0  0  0  0  0  0
   63.5698    3.6434    9.4588 C   0  0  0  0  0  0  0  0  0  0  0  0
   63.4531    2.1136    7.4252 C   0  0  0  0  0  0  0  0  0  0  0  0
   62.6478    3.5756    6.0639 C   0  0  0  0  0  0  0  0  0  0  0  0
   33.2336   22.3259    0.3395 N   0  0  0  0  0  0  0  0  0  0  0  0
   34.6845   22.7153    7.3167 C   0  0  0  0  0  0  0  0  0  0  0  0
   34.9818   23.5199    6.1981 O   0  0  0  0  0  0  0  0  0  0  0  0
   32.0596   20.7390    3.3451 Cl  0  0  0  0  0  0  0  0  0  0  0  0
   34.2631   23.3455    5.0603 C   0  0  0  0  0  0  0  0  0  0  0  0
   34.8187   21.6283   -0.9794 N   0  0  0  0  0  0  0  0  0  0  0  0
   34.4745   24.2992    4.0976 C   0  0  0  0  0  0  0  0  0  0  0  0
   32.7995   21.1346   -0.0962 N   0  0  0  0  0  0  0  0  0  0  0  0
   33.8912   24.2067    2.8616 C   0  0  0  0  0  0  0  0  0  0  0  0
   33.0897   23.1454    2.5813 C   0  0  0  0  0  0  0  0  0  0  0  0
   32.9161   22.1979    3.5757 C   0  0  0  0  0  0  0  0  0  0  0  0
   33.4615   22.2913    4.8087 C   0  0  0  0  0  0  0  0  0  0  0  0
   32.4413   23.1259    1.2546 C   0  0  0  0  0  0  0  0  0  0  0  0
   34.4449   22.6153   -0.1986 C   0  0  0  0  0  0  0  0  0  0  0  0
   33.7771   20.7286   -0.9009 C   0  0  0  0  0  0  0  0  0  0  0  0
  3  5  1  0  0  0  0
  4  6  1  0  0  0  0
  5  9  1  0  0  0  0
  9 13  4  0  0  0  0
  9 23  4  0  0  0  0
  6 10  1  0  0  0  0
 10 14  4  0  0  0  0
 10 24  4  0  0  0  0
 11 27  4  0  0  0  0
 11 29  4  0  0  0  0
 12 28  4  0  0  0  0
 12 30  4  0  0  0  0
  1 15  4  0  0  0  0
 15 29  4  0  0  0  0
  2 16  4  0  0  0  0
 16 30  4  0  0  0  0
 13 17  4  0  0  0  0
 14 18  4  0  0  0  0
 17 19  4  0  0  0  0
 18 20  4  0  0  0  0
  7 21  1  0  0  0  0
 19 21  4  0  0  0  0
 21 23  4  0  0  0  0
  8 22  1  0  0  0  0
 20 22  4  0  0  0  0
 22 24  4  0  0  0  0
  1 25  1  0  0  0  0
 19 25  1  0  0  0  0
  2 26  1  0  0  0  0
 20 26  1  0  0  0  0
  1 27  4  0  0  0  0
  2 28  4  0  0  0  0
 32 33  1  0  0  0  0
 33 35  1  0  0  0  0
 35 37  4  0  0  0  0
 35 42  4  0  0  0  0
 36 44  4  0  0  0  0
 36 45  4  0  0  0  0
 31 38  4  0  0  0  0
 38 45  4  0  0  0  0
 37 39  4  0  0  0  0
 39 40  4  0  0  0  0
 34 41  1  0  0  0  0
 40 41  4  0  0  0  0
 41 42  4  0  0  0  0
 31 43  1  0  0  0  0
 40 43  1  0  0  0  0
 31 44  4  0  0  0  0
 47 48  1  0  0  0  0
 48 50  1  0  0  0  0
 50 52  4  0  0  0  0
 50 57  4  0  0  0  0
 51 59  4  0  0  0  0
 51 60  4  0  0  0  0
 46 53  4  0  0  0  0
 53 60  4  0  0  0  0
 52 54  4  0  0  0  0
 54 55  4  0  0  0  0
 49 56  1  0  0  0  0
 55 56  4  0  0  0  0
 56 57  4  0  0  0  0
 46 58  1  0  0  0  0
 55 58  1  0  0  0  0
 46 59  4  0  0  0  0
M  END
$$$$
