7FKU
  PyMOL2.5          3D                             0

 16 16  0  0  0  0  0  0  0  0999 V2000
   18.4656   35.8441  -12.6588 N   0  0  0  0  0  0  0  0  0  0  0  0
   19.4817   35.8345  -11.6327 C   0  0  0  0  0  0  0  0  0  0  0  0
   17.5562   36.8396  -14.4526 O   0  0  0  0  0  0  0  0  0  0  0  0
   18.4186   36.8498  -13.5985 C   0  0  0  0  0  0  0  0  0  0  0  0
   19.1541   38.9484  -14.5202 N   0  0  0  0  0  0  0  0  0  0  0  0
   18.3674   41.8665  -16.8360 O   0  0  0  0  0  0  0  0  0  0  0  0
   19.4883   37.9500  -13.5094 C   0  0  0  0  0  0  0  0  0  0  0  0
   17.0932   40.0385  -16.5548 N   0  0  0  0  0  0  0  0  0  0  0  0
   19.9338   39.0382  -15.6396 C   0  0  0  0  0  0  0  0  0  0  0  0
   21.0965   38.2544  -15.7682 C   0  0  0  0  0  0  0  0  0  0  0  0
   21.8100   38.2571  -16.9355 C   0  0  0  0  0  0  0  0  0  0  0  0
   21.3998   39.0326  -18.0093 C   0  0  0  0  0  0  0  0  0  0  0  0
   20.2651   39.8116  -17.8986 C   0  0  0  0  0  0  0  0  0  0  0  0
   19.5272   39.8238  -16.7311 C   0  0  0  0  0  0  0  0  0  0  0  0
   18.3167   40.6710  -16.7085 C   0  0  0  0  0  0  0  0  0  0  0  0
   16.9714   38.5855  -16.4303 C   0  0  0  0  0  0  0  0  0  0  0  0
  1  2  1  0  0  0  0
  1  4  1  0  0  0  0
  3  4  2  0  0  0  0
  4  7  1  0  0  0  0
  5  7  1  0  0  0  0
  5  9  1  0  0  0  0
  8 15  1  0  0  0  0
  8 16  1  0  0  0  0
  9 10  4  0  0  0  0
 10 11  4  0  0  0  0
 11 12  4  0  0  0  0
 12 13  4  0  0  0  0
 13 14  4  0  0  0  0
  9 14  4  0  0  0  0
 14 15  1  0  0  0  0
  6 15  2  0  0  0  0
M  END
$$$$
