7FKY
  PyMOL2.5          3D                             0

 34 36  0  0  0  0  0  0  0  0999 V2000
   22.7112   21.1869   70.9032 N   0  0  0  0  0  0  0  0  0  0  0  0
   24.4685   24.3183   69.2997 C   0  0  0  0  0  0  0  0  0  0  0  0
   24.5624   21.6218   72.0055 O   0  0  0  0  0  0  0  0  0  0  0  0
   23.0529   24.0572   69.1667 C   0  0  0  0  0  0  0  0  0  0  0  0
   20.8330   20.2783   72.0677 O   0  0  0  0  0  0  0  0  0  0  0  0
   22.2464   25.0777   68.8335 C   0  0  0  0  0  0  0  0  0  0  0  0
   20.8280   19.8064   74.0970 O   0  5  0  0  0  0  0  0  0  0  0  0
   20.9479   24.7989   68.6340 C   0  0  0  0  0  0  0  0  0  0  0  0
   20.4336   23.5342   68.7716 C   0  0  0  0  0  0  0  0  0  0  0  0
   21.2085   22.4452   69.1371 C   0  0  0  0  0  0  0  0  0  0  0  0
   22.5380   22.6676   69.3434 C   0  0  0  0  0  0  0  0  0  0  0  0
   23.3373   21.5030   69.6811 C   0  0  0  0  0  0  0  0  0  0  0  0
   23.4058   21.3071   71.9935 C   0  0  0  0  0  0  0  0  0  0  0  0
   22.6832   21.0113   73.2025 C   0  0  0  0  0  0  0  0  0  0  0  0
   22.9124   22.0055   74.2559 C   0  0  0  0  0  0  0  0  0  0  0  0
   23.5366   20.6658   74.3573 C   0  0  0  0  0  0  0  0  0  0  0  0
   21.3448   20.3312   73.1190 C   0  0  0  0  0  0  0  0  0  0  0  0
   41.9453   35.1156   60.2069 N   0  0  0  0  0  0  0  0  0  0  0  0
   40.6793   33.8184   64.2307 C   0  0  0  0  0  0  0  0  0  0  0  0
   41.7569   37.1955   60.7026 O   0  0  0  0  0  0  0  0  0  0  0  0
   39.8060   34.0329   63.0786 C   0  0  0  0  0  0  0  0  0  0  0  0
   42.7329   36.0612   56.2610 O   0  0  0  0  0  0  0  0  0  0  0  0
   38.4713   33.8376   63.2406 C   0  0  0  0  0  0  0  0  0  0  0  0
   41.7875   34.7496   57.5417 O   0  5  0  0  0  0  0  0  0  0  0  0
   37.6026   33.9711   62.2301 C   0  0  0  0  0  0  0  0  0  0  0  0
   38.0763   34.3055   61.0434 C   0  0  0  0  0  0  0  0  0  0  0  0
   39.3657   34.5222   60.8542 C   0  0  0  0  0  0  0  0  0  0  0  0
   40.2603   34.3964   61.8507 C   0  0  0  0  0  0  0  0  0  0  0  0
   41.6764   34.7020   61.5613 C   0  0  0  0  0  0  0  0  0  0  0  0
   41.9755   36.4047   59.8774 C   0  0  0  0  0  0  0  0  0  0  0  0
   42.2720   36.8088   58.4847 C   0  0  0  0  0  0  0  0  0  0  0  0
   43.2469   37.9155   58.4190 C   0  0  0  0  0  0  0  0  0  0  0  0
   41.8298   38.2007   58.1506 C   0  0  0  0  0  0  0  0  0  0  0  0
   42.2701   35.8105   57.3443 C   0  0  0  0  0  0  0  0  0  0  0  0
  2  4  1  0  0  0  0
  4  6  4  0  0  0  0
  4 11  4  0  0  0  0
  5 17  4  0  0  0  0
  7 17  4  0  0  0  0
  6  8  4  0  0  0  0
  8  9  4  0  0  0  0
  9 10  4  0  0  0  0
 10 11  4  0  0  0  0
  1 12  1  0  0  0  0
 11 12  1  0  0  0  0
  1 13  1  0  0  0  0
  3 13  2  0  0  0  0
 13 14  1  0  0  0  0
 14 15  1  0  0  0  0
 14 16  1  0  0  0  0
 14 17  1  0  0  0  0
 15 16  1  0  0  0  0
 19 21  1  0  0  0  0
 21 23  4  0  0  0  0
 21 28  4  0  0  0  0
 22 34  4  0  0  0  0
 24 34  4  0  0  0  0
 23 25  4  0  0  0  0
 25 26  4  0  0  0  0
 26 27  4  0  0  0  0
 27 28  4  0  0  0  0
 18 29  1  0  0  0  0
 28 29  1  0  0  0  0
 18 30  1  0  0  0  0
 20 30  2  0  0  0  0
 30 31  1  0  0  0  0
 31 32  1  0  0  0  0
 31 33  1  0  0  0  0
 31 34  1  0  0  0  0
 32 33  1  0  0  0  0
M  END
$$$$
