7FKZ
  PyMOL2.5          3D                             0

 16 16  0  0  0  0  0  0  0  0999 V2000
   41.8468   55.4845   12.3961 N   0  0  0  0  0  0  0  0  0  0  0  0
   38.1819   55.8571    9.6665 C   0  0  0  0  0  0  0  0  0  0  0  0
   40.0419   55.8913   13.6715 O   0  0  0  0  0  0  0  0  0  0  0  0
   41.3725   50.8838   14.1795 Cl  0  0  0  0  0  0  0  0  0  0  0  0
   43.3944   49.5497   12.1247 Cl  0  0  0  0  0  0  0  0  0  0  0  0
   39.1061   56.2710   10.7738 C   0  0  0  0  0  0  0  0  0  0  0  0
   40.3416   54.2861   10.4999 O   0  0  0  0  0  0  0  0  0  0  0  0
   39.6328   55.0389   11.4894 C   0  0  0  0  0  0  0  0  0  0  0  0
   40.5404   55.5086   12.6166 C   0  0  0  0  0  0  0  0  0  0  0  0
   42.8103   55.7767   13.4410 C   0  0  0  0  0  0  0  0  0  0  0  0
   40.9823   53.1549   10.9398 C   0  0  0  0  0  0  0  0  0  0  0  0
   41.7882   52.5214   10.0134 C   0  0  0  0  0  0  0  0  0  0  0  0
   42.4967   51.3931   10.3790 C   0  0  0  0  0  0  0  0  0  0  0  0
   42.4074   50.9031   11.6669 C   0  0  0  0  0  0  0  0  0  0  0  0
   41.5805   51.5293   12.5859 C   0  0  0  0  0  0  0  0  0  0  0  0
   40.8714   52.6623   12.2302 C   0  0  0  0  0  0  0  0  0  0  0  0
  2  6  1  0  0  0  0
  6  8  1  0  0  0  0
  7  8  1  0  0  0  0
  7 11  1  0  0  0  0
  1  9  1  0  0  0  0
  3  9  2  0  0  0  0
  8  9  1  0  0  0  0
  1 10  1  0  0  0  0
 11 12  4  0  0  0  0
 11 16  4  0  0  0  0
 12 13  4  0  0  0  0
 13 14  4  0  0  0  0
  5 14  1  0  0  0  0
 14 15  4  0  0  0  0
  4 15  1  0  0  0  0
 15 16  4  0  0  0  0
M  END
$$$$
