7FL2
  PyMOL2.5          3D                             0

 12 12  0  0  0  0  0  0  0  0999 V2000
   45.8226   49.9801  -54.1298 N   0  0  0  0  0  0  0  0  0  0  0  0
   43.1071   49.5087  -52.7889 C   0  0  0  0  0  0  0  0  0  0  0  0
   45.2430   45.5665  -55.3083 O   0  0  0  0  0  0  0  0  0  0  0  0
   42.2672   50.0985  -52.0041 C   0  0  0  0  0  0  0  0  0  0  0  0
   47.0000   46.9306  -55.2074 N   0  0  0  0  0  0  0  0  0  0  0  0
   41.3390   48.1593  -53.2031 C   0  0  0  0  0  0  0  0  0  0  0  0
   42.6268   48.3588  -53.4939 C   0  0  0  0  0  0  0  0  0  0  0  0
   43.5619   47.4588  -54.1292 C   0  0  0  0  0  0  0  0  0  0  0  0
   44.8412   47.6951  -54.4412 C   0  0  0  0  0  0  0  0  0  0  0  0
   45.4395   48.9409  -54.2930 C   0  0  0  0  0  0  0  0  0  0  0  0
   45.6758   46.6497  -55.0122 C   0  0  0  0  0  0  0  0  0  0  0  0
   40.8273   49.3475  -52.0371 S   0  0  0  0  0  0  0  0  0  0  0  0
  2  4  4  0  0  0  0
  4 12  4  0  0  0  0
  5 11  1  0  0  0  0
  6 12  4  0  0  0  0
  2  7  4  0  0  0  0
  6  7  4  0  0  0  0
  7  8  1  0  0  0  0
  8  9  1  0  0  0  0
  9 10  1  0  0  0  0
  1 10  3  0  0  0  0
  3 11  2  0  0  0  0
  9 11  1  0  0  0  0
M  END
$$$$
