7FLI
  PyMOL2.5          3D                             0

 12 12  0  0  0  0  0  0  0  0999 V2000
   47.0544   29.8317  -38.5374 N   0  0  0  0  0  0  0  0  0  0  0  0
   46.0331   31.5784  -40.9467 C   0  0  0  0  0  0  0  0  0  0  0  0
   46.1444   34.8424  -39.3895 O   0  0  0  0  0  0  0  0  0  0  0  0
   46.2054   32.5019  -39.7690 C   0  0  0  0  0  0  0  0  0  0  0  0
   44.5369   34.0334  -40.6532 O   0  5  0  0  0  0  0  0  0  0  0  0
   45.5728   33.9215  -39.9762 C   0  0  0  0  0  0  0  0  0  0  0  0
   45.8358   30.1492  -38.1146 C   0  0  0  0  0  0  0  0  0  0  0  0
   44.9904   29.2431  -37.5026 C   0  0  0  0  0  0  0  0  0  0  0  0
   45.4196   27.9426  -37.3781 C   0  0  0  0  0  0  0  0  0  0  0  0
   46.6375   27.5843  -37.8432 C   0  0  0  0  0  0  0  0  0  0  0  0
   47.4270   28.5723  -38.4064 C   0  0  0  0  0  0  0  0  0  0  0  0
   45.2378   31.7717  -38.4231 S   0  0  0  0  0  0  0  0  0  0  0  0
  2  4  1  0  0  0  0
  4  6  1  0  0  0  0
  4 12  1  0  0  0  0
  5  6  4  0  0  0  0
  3  6  4  0  0  0  0
  1  7  4  0  0  0  0
  7 12  1  0  0  0  0
  7  8  4  0  0  0  0
  8  9  4  0  0  0  0
  9 10  4  0  0  0  0
  1 11  4  0  0  0  0
 10 11  4  0  0  0  0
M  END
$$$$
