7FLO
  PyMOL2.5          3D                             0

 11 11  0  0  0  0  0  0  0  0999 V2000
   81.4394   13.1735    9.6125 N   0  0  0  0  0  0  0  0  0  0  0  0
   81.9603   13.2931   12.7424 C   0  0  0  0  0  0  0  0  0  0  0  0
   80.7073   13.3846   12.1535 O   0  0  0  0  0  0  0  0  0  0  0  0
   80.2412   12.1348   12.0534 C   0  0  0  0  0  0  0  0  0  0  0  0
   81.1865   11.1300    8.6923 O   0  0  0  0  0  0  0  0  0  0  0  0
   79.5959   11.6184   13.1318 C   0  0  0  0  0  0  0  0  0  0  0  0
   79.2185   10.2988   13.0590 C   0  0  0  0  0  0  0  0  0  0  0  0
   79.4917    9.5185   11.9548 C   0  0  0  0  0  0  0  0  0  0  0  0
   80.1435   10.0489   10.8782 C   0  0  0  0  0  0  0  0  0  0  0  0
   80.5061   11.3865   10.9039 C   0  0  0  0  0  0  0  0  0  0  0  0
   81.0704   11.8771    9.6572 C   0  0  0  0  0  0  0  0  0  0  0  0
  2  3  1  0  0  0  0
  3  4  1  0  0  0  0
  4  6  4  0  0  0  0
  4 10  4  0  0  0  0
  6  7  4  0  0  0  0
  7  8  4  0  0  0  0
  8  9  4  0  0  0  0
  9 10  4  0  0  0  0
  1 11  1  0  0  0  0
  5 11  2  0  0  0  0
 10 11  1  0  0  0  0
M  END
$$$$
