7FLU
  PyMOL2.5          3D                             0

 14 15  0  0  0  0  0  0  0  0999 V2000
  -19.6446   29.9520   -1.7147 N   0  0  0  0  0  0  0  0  0  0  0  0
  -17.7876   34.3609   -1.7670 C   0  0  0  0  0  0  0  0  0  0  0  0
  -21.6374   35.5791   -1.3769 O   0  0  0  0  0  0  0  0  0  0  0  0
  -18.1085   35.6889   -1.9381 C   0  0  0  0  0  0  0  0  0  0  0  0
  -18.8981   31.6864    0.2253 N   0  3  0  0  0  0  0  0  0  0  0  0
  -19.7074   37.4042   -1.8151 O   0  0  0  0  0  0  0  0  0  0  0  0
  -19.4184   36.0930   -1.7656 C   0  0  0  0  0  0  0  0  0  0  0  0
  -20.3814   35.1897   -1.4807 C   0  0  0  0  0  0  0  0  0  0  0  0
  -20.0834   33.8624   -1.3117 C   0  0  0  0  0  0  0  0  0  0  0  0
  -18.7713   33.4535   -1.4432 C   0  0  0  0  0  0  0  0  0  0  0  0
  -18.3916   32.0390   -1.1851 C   0  0  0  0  0  0  0  0  0  0  0  0
  -18.8877   31.0513   -2.2880 C   0  0  0  0  0  0  0  0  0  0  0  0
  -21.9483   36.5669   -2.3415 C   0  0  0  0  0  0  0  0  0  0  0  0
  -21.0230   37.7706   -2.1921 C   0  0  0  0  0  0  0  0  0  0  0  0
  2  4  4  0  0  0  0
  4  7  4  0  0  0  0
  5 11  1  0  0  0  0
  6  7  1  0  0  0  0
  3  8  1  0  0  0  0
  7  8  4  0  0  0  0
  8  9  4  0  0  0  0
  2 10  4  0  0  0  0
  9 10  4  0  0  0  0
 10 11  1  0  0  0  0
  1 12  1  0  0  0  0
 11 12  1  0  0  0  0
  3 13  1  0  0  0  0
 13 14  1  0  0  0  0
  6 14  1  0  0  0  0
M  END
$$$$
