7FLZ
  PyMOL2.5          3D                             0

 12 12  0  0  0  0  0  0  0  0999 V2000
   53.2267   10.0805   30.8677 N   0  0  0  0  0  0  0  0  0  0  0  0
   55.7522   10.5205   31.1120 C   0  0  0  0  0  0  0  0  0  0  0  0
   54.2076    9.8944   32.9958 O   0  0  0  0  0  0  0  0  0  0  0  0
   53.2374   10.0095   29.4869 C   0  0  0  0  0  0  0  0  0  0  0  0
   54.8335    8.2717   31.3354 O   0  0  0  0  0  0  0  0  0  0  0  0
   52.5216   10.9652   28.7696 C   0  0  0  0  0  0  0  0  0  0  0  0
   52.5349   10.9831   27.3912 C   0  0  0  0  0  0  0  0  0  0  0  0
   53.2453   10.0352   26.6741 C   0  0  0  0  0  0  0  0  0  0  0  0
   53.9451    9.0552   27.3371 C   0  0  0  0  0  0  0  0  0  0  0  0
   53.9655    9.0416   28.7473 C   0  0  0  0  0  0  0  0  0  0  0  0
   54.7278    8.1748   29.3339 F   0  0  0  0  0  0  0  0  0  0  0  0
   54.4982    9.5921   31.6828 S   0  0  0  0  0  0  0  0  0  0  0  0
  1 12  1  0  0  0  0
  1  4  1  0  0  0  0
  4  6  4  0  0  0  0
  4 10  4  0  0  0  0
  5 12  2  0  0  0  0
  6  7  4  0  0  0  0
  7  8  4  0  0  0  0
  8  9  4  0  0  0  0
  9 10  4  0  0  0  0
 10 11  1  0  0  0  0
  2 12  1  0  0  0  0
  3 12  2  0  0  0  0
M  END
$$$$
