7FM5
  PyMOL2.5          3D                             0

 36 36  0  0  0  0  0  0  0  0999 V2000
   90.1960   -6.5785  -41.0623 N   0  0  0  0  0  0  0  0  0  0  0  0
   92.5442   -6.6155  -40.0921 C   0  0  0  0  0  0  0  0  0  0  0  0
   91.6258   -4.8351  -41.2980 O   0  0  0  0  0  0  0  0  0  0  0  0
   89.7372   -9.2926  -36.8132 Cl  0  0  0  0  0  0  0  0  0  0  0  0
   91.4447   -5.9608  -40.8911 C   0  0  0  0  0  0  0  0  0  0  0  0
   88.0628   -7.7582  -42.0684 N   0  0  0  0  0  0  0  0  0  0  0  0
   89.7345   -7.7113  -40.4309 C   0  0  0  0  0  0  0  0  0  0  0  0
   90.2663   -8.0703  -39.2085 C   0  0  0  0  0  0  0  0  0  0  0  0
   89.4554   -8.9472  -38.4381 C   0  0  0  0  0  0  0  0  0  0  0  0
   88.3083   -9.5088  -38.8964 C   0  0  0  0  0  0  0  0  0  0  0  0
   87.8206   -9.2135  -40.1358 C   0  0  0  0  0  0  0  0  0  0  0  0
   88.4958   -8.3125  -40.9012 C   0  0  0  0  0  0  0  0  0  0  0  0
   85.6265  -14.2800  -17.0365 N   0  0  0  0  0  0  0  0  0  0  0  0
   85.2899  -16.0012  -15.3811 C   0  0  0  0  0  0  0  0  0  0  0  0
   86.0335  -16.3452  -17.5440 O   0  0  0  0  0  0  0  0  0  0  0  0
   84.5410  -13.3533  -21.8181 Cl  0  0  0  0  0  0  0  0  0  0  0  0
   85.6912  -15.5827  -16.7512 C   0  0  0  0  0  0  0  0  0  0  0  0
   88.1863  -13.4370  -17.4221 N   0  0  0  0  0  0  0  0  0  0  0  0
   85.9907  -13.8014  -18.2845 C   0  0  0  0  0  0  0  0  0  0  0  0
   85.1092  -13.7838  -19.3355 C   0  0  0  0  0  0  0  0  0  0  0  0
   85.5579  -13.3813  -20.5342 C   0  0  0  0  0  0  0  0  0  0  0  0
   86.8330  -12.9924  -20.7371 C   0  0  0  0  0  0  0  0  0  0  0  0
   87.7160  -12.9858  -19.7003 C   0  0  0  0  0  0  0  0  0  0  0  0
   87.3119  -13.3941  -18.4514 C   0  0  0  0  0  0  0  0  0  0  0  0
   73.4504    9.9645  -13.8626 N   0  0  0  0  0  0  0  0  0  0  0  0
   75.3542   11.3950  -13.7218 C   0  0  0  0  0  0  0  0  0  0  0  0
   75.2633    9.1107  -12.9453 O   0  0  0  0  0  0  0  0  0  0  0  0
   72.1776    5.4097  -15.4408 Cl  0  0  0  0  0  0  0  0  0  0  0  0
   74.7254   10.0524  -13.4578 C   0  0  0  0  0  0  0  0  0  0  0  0
   71.7643    9.8106  -11.7416 N   0  0  0  0  0  0  0  0  0  0  0  0
   72.7487    8.8076  -13.6852 C   0  0  0  0  0  0  0  0  0  0  0  0
   72.8703    7.7765  -14.5780 C   0  0  0  0  0  0  0  0  0  0  0  0
   72.0795    6.7024  -14.3801 C   0  0  0  0  0  0  0  0  0  0  0  0
   71.2034    6.6104  -13.3716 C   0  0  0  0  0  0  0  0  0  0  0  0
   71.0967    7.6423  -12.4877 C   0  0  0  0  0  0  0  0  0  0  0  0
   71.8773    8.7609  -12.6232 C   0  0  0  0  0  0  0  0  0  0  0  0
  1  5  1  0  0  0  0
  2  5  1  0  0  0  0
  3  5  2  0  0  0  0
  6 12  1  0  0  0  0
  1  7  1  0  0  0  0
  7  8  4  0  0  0  0
  4  9  1  0  0  0  0
  8  9  4  0  0  0  0
  9 10  4  0  0  0  0
 10 11  4  0  0  0  0
  7 12  4  0  0  0  0
 11 12  4  0  0  0  0
 13 17  1  0  0  0  0
 14 17  1  0  0  0  0
 15 17  2  0  0  0  0
 18 24  1  0  0  0  0
 13 19  1  0  0  0  0
 19 20  4  0  0  0  0
 16 21  1  0  0  0  0
 20 21  4  0  0  0  0
 21 22  4  0  0  0  0
 22 23  4  0  0  0  0
 19 24  4  0  0  0  0
 23 24  4  0  0  0  0
 25 29  1  0  0  0  0
 26 29  1  0  0  0  0
 27 29  2  0  0  0  0
 30 36  1  0  0  0  0
 25 31  1  0  0  0  0
 31 32  4  0  0  0  0
 28 33  1  0  0  0  0
 32 33  4  0  0  0  0
 33 34  4  0  0  0  0
 34 35  4  0  0  0  0
 31 36  4  0  0  0  0
 35 36  4  0  0  0  0
M  END
$$$$
