7FM6
  PyMOL2.5          3D                             0

 13 13  0  0  0  0  0  0  0  0999 V2000
   39.9987  -32.1189   41.2396 N   0  3  0  0  0  0  0  0  0  0  0  0
   34.9611  -32.6232   44.4963 C   0  0  0  0  0  0  0  0  0  0  0  0
   36.2939  -32.3190   44.2609 O   0  0  0  0  0  0  0  0  0  0  0  0
   36.8806  -32.5760   43.0911 C   0  0  0  0  0  0  0  0  0  0  0  0
   38.1876  -33.2410   38.0360 N   0  0  0  0  0  0  0  0  0  0  0  0
   40.7174  -32.0275   42.1347 O   0  0  0  0  0  0  0  0  0  0  0  0
   36.0674  -33.1431   42.1375 C   0  0  0  0  0  0  0  0  0  0  0  0
   40.3295  -31.9624   40.1474 O   0  5  0  0  0  0  0  0  0  0  0  0
   36.5610  -33.3357   40.8765 C   0  0  0  0  0  0  0  0  0  0  0  0
   37.8198  -32.9781   40.5312 C   0  0  0  0  0  0  0  0  0  0  0  0
   38.6417  -32.4555   41.5189 C   0  0  0  0  0  0  0  0  0  0  0  0
   38.1974  -32.2490   42.8081 C   0  0  0  0  0  0  0  0  0  0  0  0
   38.1142  -33.1033   39.1482 C   0  0  0  0  0  0  0  0  0  0  0  0
  1  8  4  0  0  0  0
  2  3  1  0  0  0  0
  3  4  1  0  0  0  0
  4  7  4  0  0  0  0
  4 12  4  0  0  0  0
  5 13  3  0  0  0  0
  1  6  4  0  0  0  0
  7  9  4  0  0  0  0
  9 10  4  0  0  0  0
  1 11  1  0  0  0  0
 10 11  4  0  0  0  0
 11 12  4  0  0  0  0
 10 13  1  0  0  0  0
M  END
$$$$
