7FMA
  PyMOL2.5          3D                             0

 13 13  0  0  0  0  0  0  0  0999 V2000
   45.5562   32.1101    1.7555 N   0  0  0  0  0  0  0  0  0  0  0  0
   44.6726   29.8561    2.5610 C   0  0  0  0  0  0  0  0  0  0  0  0
   46.9378   30.6069    2.9902 O   0  0  0  0  0  0  0  0  0  0  0  0
   46.3711   33.1251    1.2487 C   0  0  0  0  0  0  0  0  0  0  0  0
   49.6967   31.7976    0.0686 N   0  3  0  0  0  0  0  0  0  0  0  0
   46.3172   30.2287    0.7811 O   0  0  0  0  0  0  0  0  0  0  0  0
   45.7952   34.3393    1.0821 C   0  0  0  0  0  0  0  0  0  0  0  0
   46.4566   35.3523    0.5728 C   0  0  0  0  0  0  0  0  0  0  0  0
   47.7498   35.2229    0.1982 C   0  0  0  0  0  0  0  0  0  0  0  0
   48.3813   34.0531    0.3530 C   0  0  0  0  0  0  0  0  0  0  0  0
   47.7096   32.9691    0.8878 C   0  0  0  0  0  0  0  0  0  0  0  0
   48.5165   31.7635    1.0692 C   0  0  0  0  0  0  0  0  0  0  0  0
   46.0207   30.5576    2.0418 S   0  0  0  0  0  0  0  0  0  0  0  0
  1  4  1  0  0  0  0
  4  7  4  0  0  0  0
  4 11  4  0  0  0  0
  5 12  1  0  0  0  0
  6 13  2  0  0  0  0
  7  8  4  0  0  0  0
  8  9  4  0  0  0  0
  9 10  4  0  0  0  0
 10 11  4  0  0  0  0
 11 12  1  0  0  0  0
  1 13  1  0  0  0  0
  2 13  1  0  0  0  0
  3 13  2  0  0  0  0
M  END
$$$$
