7FMB
  PyMOL2.5          3D                             0

 30 30  0  0  0  0  0  0  0  0999 V2000
   50.9653   15.9077  -13.7201 N   0  0  0  0  0  0  0  0  0  0  0  0
   51.0510   13.7239  -10.1636 C   0  0  0  0  0  0  0  0  0  0  0  0
   49.5508   14.5681  -12.6435 O   0  0  0  0  0  0  0  0  0  0  0  0
   51.9500   13.5465  -11.3256 C   0  0  0  0  0  0  0  0  0  0  0  0
   49.9836   16.7070  -14.1236 N   0  0  0  0  0  0  0  0  0  0  0  0
   53.1270   12.7659  -11.2781 C   0  0  0  0  0  0  0  0  0  0  0  0
   53.7626   12.8084  -12.4811 C   0  0  0  0  0  0  0  0  0  0  0  0
   51.7980   14.0932  -12.5548 C   0  0  0  0  0  0  0  0  0  0  0  0
   50.6849   14.8464  -12.9432 C   0  0  0  0  0  0  0  0  0  0  0  0
   52.9965   13.7487  -13.6408 S   0  0  0  0  0  0  0  0  0  0  0  0
   33.1945    2.0883  -32.1313 N   0  0  0  0  0  0  0  0  0  0  0  0
   36.7277    2.6953  -34.7403 C   0  0  0  0  0  0  0  0  0  0  0  0
   34.7953    1.0736  -33.3101 O   0  0  0  0  0  0  0  0  0  0  0  0
   36.0504    3.6496  -33.8897 C   0  0  0  0  0  0  0  0  0  0  0  0
   32.5021    0.9262  -31.8225 N   0  0  0  0  0  0  0  0  0  0  0  0
   36.4597    5.0094  -33.8385 C   0  0  0  0  0  0  0  0  0  0  0  0
   35.6501    5.7378  -33.0553 C   0  0  0  0  0  0  0  0  0  0  0  0
   34.9601    3.4192  -33.1205 C   0  0  0  0  0  0  0  0  0  0  0  0
   34.3484    2.1113  -32.8997 C   0  0  0  0  0  0  0  0  0  0  0  0
   34.4284    4.8321  -32.3716 S   0  0  0  0  0  0  0  0  0  0  0  0
  -30.9852   -0.5829   11.5506 N   0  0  0  0  0  0  0  0  0  0  0  0
  -31.1105   -3.6187    8.1444 C   0  0  0  0  0  0  0  0  0  0  0  0
  -31.8654   -0.8283    9.5220 O   0  0  0  0  0  0  0  0  0  0  0  0
  -30.8564   -3.6928    9.5856 C   0  0  0  0  0  0  0  0  0  0  0  0
  -30.2184   -1.1636   12.5851 N   0  0  0  0  0  0  0  0  0  0  0  0
  -30.5698   -4.9331   10.1420 C   0  0  0  0  0  0  0  0  0  0  0  0
  -30.2237   -4.9062   11.4170 C   0  0  0  0  0  0  0  0  0  0  0  0
  -30.7604   -2.7310   10.5345 C   0  0  0  0  0  0  0  0  0  0  0  0
  -31.2772   -1.3220   10.4448 C   0  0  0  0  0  0  0  0  0  0  0  0
  -30.2345   -3.3936   12.0407 S   0  0  0  0  0  0  0  0  0  0  0  0
  2  4  1  0  0  0  0
  4  6  4  0  0  0  0
  4  8  4  0  0  0  0
  1  5  1  0  0  0  0
  6  7  4  0  0  0  0
  7 10  4  0  0  0  0
  8 10  4  0  0  0  0
  1  9  1  0  0  0  0
  3  9  2  0  0  0  0
  8  9  1  0  0  0  0
 12 14  1  0  0  0  0
 14 16  4  0  0  0  0
 14 18  4  0  0  0  0
 11 15  1  0  0  0  0
 16 17  4  0  0  0  0
 17 20  4  0  0  0  0
 18 20  4  0  0  0  0
 11 19  1  0  0  0  0
 13 19  2  0  0  0  0
 18 19  1  0  0  0  0
 22 24  1  0  0  0  0
 24 26  4  0  0  0  0
 24 28  4  0  0  0  0
 21 25  1  0  0  0  0
 26 27  4  0  0  0  0
 27 30  4  0  0  0  0
 28 30  4  0  0  0  0
 21 29  1  0  0  0  0
 23 29  2  0  0  0  0
 28 29  1  0  0  0  0
M  END
$$$$
