7FMC
  PyMOL2.5          3D                             0

 12 12  0  0  0  0  0  0  0  0999 V2000
   19.8618    7.5444   17.2516 N   0  3  0  0  0  0  0  0  0  0  0  0
   19.8668    6.3363   18.1470 C   0  0  0  0  0  0  0  0  0  0  0  0
   25.3481    7.8583   16.2499 O   0  0  0  0  0  0  0  0  0  0  0  0
   21.2776    8.0712   17.0870 C   0  0  0  0  0  0  0  0  0  0  0  0
   23.6368    9.2617   16.6356 N   0  0  0  0  0  0  0  0  0  0  0  0
   20.9533    7.7409   14.8172 O   0  0  0  0  0  0  0  0  0  0  0  0
   21.4464    8.6733   15.6726 C   0  0  0  0  0  0  0  0  0  0  0  0
   22.9375    8.9354   15.4284 C   0  0  0  0  0  0  0  0  0  0  0  0
   23.1354   10.1585   17.6726 C   0  0  0  0  0  0  0  0  0  0  0  0
   24.3670   10.4433   18.5470 C   0  0  0  0  0  0  0  0  0  0  0  0
   25.4728    9.5167   18.0617 C   0  0  0  0  0  0  0  0  0  0  0  0
   24.8800    8.7612   16.9116 C   0  0  0  0  0  0  0  0  0  0  0  0
  1  2  1  0  0  0  0
  1  4  1  0  0  0  0
  4  7  1  0  0  0  0
  5  8  1  0  0  0  0
  5  9  4  0  0  0  0
  5 12  4  0  0  0  0
  6  7  1  0  0  0  0
  7  8  1  0  0  0  0
  9 10  4  0  0  0  0
 10 11  4  0  0  0  0
  3 12  2  0  0  0  0
 11 12  4  0  0  0  0
M  END
$$$$
