7FMD
  PyMOL2.5          3D                             0

 14 14  0  0  0  0  0  0  0  0999 V2000
   14.8498   26.1241  -23.2679 N   0  3  0  0  0  0  0  0  0  0  0  0
   16.7374   29.7270  -23.3223 C   0  0  0  0  0  0  0  0  0  0  0  0
   13.6949   26.1441  -23.3780 O   0  0  0  0  0  0  0  0  0  0  0  0
   19.1245   28.6598  -23.6818 Cl  0  0  0  0  0  0  0  0  0  0  0  0
   15.4116   29.7236  -23.0421 C   0  0  0  0  0  0  0  0  0  0  0  0
   13.4498   28.4526  -22.4853 N   0  0  0  0  0  0  0  0  0  0  0  0
   15.4743   25.1300  -23.3520 O   0  5  0  0  0  0  0  0  0  0  0  0
   14.7492   28.5097  -22.8781 C   0  0  0  0  0  0  0  0  0  0  0  0
   10.4509   28.8940  -22.1674 O   0  0  0  0  0  0  0  0  0  0  0  0
   15.5091   27.3568  -23.0528 C   0  0  0  0  0  0  0  0  0  0  0  0
   16.8779   27.3619  -23.2769 C   0  0  0  0  0  0  0  0  0  0  0  0
   17.4617   28.5586  -23.4129 C   0  0  0  0  0  0  0  0  0  0  0  0
   12.6800   29.6686  -22.1882 C   0  0  0  0  0  0  0  0  0  0  0  0
   11.4503   29.3378  -21.3001 C   0  0  0  0  0  0  0  0  0  0  0  0
  1  3  4  0  0  0  0
  2  5  4  0  0  0  0
  5  8  4  0  0  0  0
  6  8  1  0  0  0  0
  6 13  1  0  0  0  0
  1  7  4  0  0  0  0
  1 10  1  0  0  0  0
  8 10  4  0  0  0  0
 10 11  4  0  0  0  0
  2 12  4  0  0  0  0
  4 12  1  0  0  0  0
 11 12  4  0  0  0  0
  9 14  1  0  0  0  0
 13 14  1  0  0  0  0
M  END
$$$$
