7FMF
  PyMOL2.5          3D                             0

 14 15  0  0  0  0  0  0  0  0999 V2000
   36.1951   15.4623  -14.3484 N   0  0  0  0  0  0  0  0  0  0  0  0
   32.1899   16.7490  -11.3336 C   0  0  0  0  0  0  0  0  0  0  0  0
   33.2319   17.4487  -12.0043 C   0  0  0  0  0  0  0  0  0  0  0  0
   35.8477   15.6874  -16.7274 N   0  3  0  0  0  0  0  0  0  0  0  0
   34.3829   16.8743  -11.8202 C   0  0  0  0  0  0  0  0  0  0  0  0
   36.1684   17.6078  -15.3660 N   0  0  0  0  0  0  0  0  0  0  0  0
   32.6162   15.6937  -10.6562 C   0  0  0  0  0  0  0  0  0  0  0  0
   35.6879   17.2016  -12.5110 C   0  0  0  0  0  0  0  0  0  0  0  0
   36.4795   15.9539  -12.9729 C   0  0  0  0  0  0  0  0  0  0  0  0
   36.0684   16.2426  -15.4702 C   0  0  0  0  0  0  0  0  0  0  0  0
   35.7966   14.2707  -17.0663 C   0  0  0  0  0  0  0  0  0  0  0  0
   34.9507   13.8071  -18.2451 C   0  0  0  0  0  0  0  0  0  0  0  0
   36.4328   13.9332  -18.4153 C   0  0  0  0  0  0  0  0  0  0  0  0
   34.2695   15.5137  -10.8004 S   0  0  0  0  0  0  0  0  0  0  0  0
  2  3  4  0  0  0  0
  3  5  4  0  0  0  0
  4 10  1  0  0  0  0
  4 11  1  0  0  0  0
  5 14  4  0  0  0  0
  6 10  1  0  0  0  0
  2  7  4  0  0  0  0
  7 14  4  0  0  0  0
  5  8  1  0  0  0  0
  1  9  1  0  0  0  0
  8  9  1  0  0  0  0
  1 10  1  0  0  0  0
 11 12  1  0  0  0  0
 11 13  1  0  0  0  0
 12 13  1  0  0  0  0
M  END
$$$$
