7FML
  PyMOL2.5          3D                             0

 16 17  0  0  0  0  0  0  0  0999 V2000
   40.2273   -9.4906  -16.1327 N   0  0  0  0  0  0  0  0  0  0  0  0
   38.9727   -9.6538  -18.6050 C   0  0  0  0  0  0  0  0  0  0  0  0
   40.1124   -7.1074  -16.3004 O   0  0  0  0  0  0  0  0  0  0  0  0
   39.3145  -10.8028  -17.9057 C   0  0  0  0  0  0  0  0  0  0  0  0
   39.8317   -7.9755  -12.8575 N   0  3  0  0  0  0  0  0  0  0  0  0
   40.9485   -5.5809  -11.2812 O   0  0  0  0  0  0  0  0  0  0  0  0
   39.9363  -10.6738  -16.6761 C   0  0  0  0  0  0  0  0  0  0  0  0
   39.8812   -8.3667  -16.8382 C   0  0  0  0  0  0  0  0  0  0  0  0
   39.2582   -8.3836  -18.0771 C   0  0  0  0  0  0  0  0  0  0  0  0
   40.7355   -7.0402  -15.0491 C   0  0  0  0  0  0  0  0  0  0  0  0
   39.6171   -6.9241  -13.9717 C   0  0  0  0  0  0  0  0  0  0  0  0
   39.4600   -7.4580  -11.4559 C   0  0  0  0  0  0  0  0  0  0  0  0
   40.6136   -6.8135  -10.8335 C   0  0  0  0  0  0  0  0  0  0  0  0
   41.5076   -7.2494   -9.8894 C   0  0  0  0  0  0  0  0  0  0  0  0
   42.4604   -6.2257   -9.7763 C   0  0  0  0  0  0  0  0  0  0  0  0
   42.0760   -5.2467  -10.6327 C   0  0  0  0  0  0  0  0  0  0  0  0
  2  4  4  0  0  0  0
  4  7  4  0  0  0  0
  5 11  1  0  0  0  0
  5 12  1  0  0  0  0
  6 16  4  0  0  0  0
  1  7  4  0  0  0  0
  1  8  4  0  0  0  0
  3  8  1  0  0  0  0
  2  9  4  0  0  0  0
  8  9  4  0  0  0  0
  3 10  1  0  0  0  0
 10 11  1  0  0  0  0
 12 13  1  0  0  0  0
  6 13  4  0  0  0  0
 13 14  4  0  0  0  0
 14 15  4  0  0  0  0
 15 16  4  0  0  0  0
M  END
$$$$
