7FMP
  PyMOL2.5          3D                             0

 11 11  0  0  0  0  0  0  0  0999 V2000
   13.5661   30.7538   22.0813 N   0  0  0  0  0  0  0  0  0  0  0  0
   16.2457   33.6687   21.1677 C   0  0  0  0  0  0  0  0  0  0  0  0
   11.1789   29.8105   23.7774 O   0  0  0  0  0  0  0  0  0  0  0  0
   16.6018   32.4776   21.7318 C   0  0  0  0  0  0  0  0  0  0  0  0
   12.8313   30.9716   24.6054 N   0  0  0  0  0  0  0  0  0  0  0  0
   15.7326   31.4381   22.2050 C   0  0  0  0  0  0  0  0  0  0  0  0
   14.4377   31.7049   22.0039 C   0  0  0  0  0  0  0  0  0  0  0  0
   14.0267   32.9658   21.4202 C   0  0  0  0  0  0  0  0  0  0  0  0
   14.9451   33.9145   21.0250 C   0  0  0  0  0  0  0  0  0  0  0  0
   12.2374   31.1282   22.2497 C   0  0  0  0  0  0  0  0  0  0  0  0
   12.0075   30.5827   23.6126 C   0  0  0  0  0  0  0  0  0  0  0  0
  2  4  4  0  0  0  0
  4  6  4  0  0  0  0
  5 11  1  0  0  0  0
  1  7  1  0  0  0  0
  6  7  4  0  0  0  0
  7  8  4  0  0  0  0
  2  9  4  0  0  0  0
  8  9  4  0  0  0  0
  1 10  1  0  0  0  0
  3 11  2  0  0  0  0
 10 11  1  0  0  0  0
M  END
$$$$
