7FMQ
  PyMOL2.5          3D                             0

 12 12  0  0  0  0  0  0  0  0999 V2000
   36.5920   -7.9381   38.8399 C   0  0  0  0  0  0  0  0  0  0  0  0
   37.6343  -11.7144   39.1385 O   0  0  0  0  0  0  0  0  0  0  0  0
   35.7085   -8.8369   39.2365 C   0  0  0  0  0  0  0  0  0  0  0  0
   37.8296  -14.1309   36.8932 O   0  0  0  0  0  0  0  0  0  0  0  0
   36.0586  -10.0752   39.2980 C   0  0  0  0  0  0  0  0  0  0  0  0
   37.0737  -14.9129   38.6969 O   0  5  0  0  0  0  0  0  0  0  0  0
   37.3523  -10.4704   38.9657 C   0  0  0  0  0  0  0  0  0  0  0  0
   38.2292   -9.5936   38.5568 C   0  0  0  0  0  0  0  0  0  0  0  0
   37.8727   -8.3453   38.5019 C   0  0  0  0  0  0  0  0  0  0  0  0
   38.7560  -12.2153   38.5521 C   0  0  0  0  0  0  0  0  0  0  0  0
   38.8731  -13.6185   38.9033 C   0  0  0  0  0  0  0  0  0  0  0  0
   37.8207  -14.3049   38.0815 C   0  0  0  0  0  0  0  0  0  0  0  0
  1  3  4  0  0  0  0
  3  5  4  0  0  0  0
  2  7  1  0  0  0  0
  5  7  4  0  0  0  0
  7  8  4  0  0  0  0
  1  9  4  0  0  0  0
  8  9  4  0  0  0  0
  2 10  1  0  0  0  0
 10 11  1  0  0  0  0
 11 12  1  0  0  0  0
  4 12  4  0  0  0  0
  6 12  4  0  0  0  0
M  END
$$$$
