7FMS
  PyMOL2.5          3D                             0

 26 26  0  0  0  0  0  0  0  0999 V2000
    1.5672   10.0727   -3.7865 N   0  0  0  0  0  0  0  0  0  0  0  0
    0.6303   10.6654   -2.8339 C   0  0  0  0  0  0  0  0  0  0  0  0
    0.0438   10.0359   -5.3257 O   0  0  0  0  0  0  0  0  0  0  0  0
    2.4229    9.1768   -3.1748 C   0  0  0  0  0  0  0  0  0  0  0  0
    2.0798   10.1703  -10.4515 N   0  0  0  0  0  0  0  0  0  0  0  0
    1.8992    9.1200   -5.7587 O   0  0  0  0  0  0  0  0  0  0  0  0
    1.0754    9.7698   -4.9946 C   0  0  0  0  0  0  0  0  0  0  0  0
    1.5880    8.8744   -7.1003 C   0  0  0  0  0  0  0  0  0  0  0  0
    0.8356    7.7361   -7.3630 C   0  0  0  0  0  0  0  0  0  0  0  0
    0.5583    7.4444   -8.6822 C   0  0  0  0  0  0  0  0  0  0  0  0
    0.9800    8.2362   -9.7076 C   0  0  0  0  0  0  0  0  0  0  0  0
    1.6986    9.3627   -9.4262 C   0  0  0  0  0  0  0  0  0  0  0  0
    2.0221    9.7001   -8.1164 C   0  0  0  0  0  0  0  0  0  0  0  0
   15.9337    5.6075  -18.2622 N   0  0  0  0  0  0  0  0  0  0  0  0
   16.1107    7.0540  -18.4292 C   0  0  0  0  0  0  0  0  0  0  0  0
   15.7215    5.4349  -15.9343 O   0  0  0  0  0  0  0  0  0  0  0  0
   15.3128    4.9160  -19.4023 C   0  0  0  0  0  0  0  0  0  0  0  0
   13.8101    1.1124  -14.5780 N   0  0  0  0  0  0  0  0  0  0  0  0
   16.7683    3.8333  -17.0627 O   0  0  0  0  0  0  0  0  0  0  0  0
   16.1035    5.0079  -16.9955 C   0  0  0  0  0  0  0  0  0  0  0  0
   16.4660    2.9107  -16.1315 C   0  0  0  0  0  0  0  0  0  0  0  0
   17.5317    2.4154  -15.4561 C   0  0  0  0  0  0  0  0  0  0  0  0
   17.3419    1.4753  -14.4633 C   0  0  0  0  0  0  0  0  0  0  0  0
   16.0901    1.0436  -14.1638 C   0  0  0  0  0  0  0  0  0  0  0  0
   15.0213    1.5638  -14.8683 C   0  0  0  0  0  0  0  0  0  0  0  0
   15.1838    2.5238  -15.8790 C   0  0  0  0  0  0  0  0  0  0  0  0
  1  2  1  0  0  0  0
  1  4  1  0  0  0  0
  5 12  1  0  0  0  0
  6  7  1  0  0  0  0
  6  8  1  0  0  0  0
  1  7  1  0  0  0  0
  3  7  2  0  0  0  0
  8  9  4  0  0  0  0
  9 10  4  0  0  0  0
 10 11  4  0  0  0  0
 11 12  4  0  0  0  0
 12 13  4  0  0  0  0
  8 13  4  0  0  0  0
 14 15  1  0  0  0  0
 14 17  1  0  0  0  0
 18 25  1  0  0  0  0
 19 20  1  0  0  0  0
 19 21  1  0  0  0  0
 14 20  1  0  0  0  0
 16 20  2  0  0  0  0
 21 22  4  0  0  0  0
 22 23  4  0  0  0  0
 23 24  4  0  0  0  0
 24 25  4  0  0  0  0
 25 26  4  0  0  0  0
 21 26  4  0  0  0  0
M  END
$$$$
