7FMV
  PyMOL2.5          3D                             0

 14 15  0  0  0  0  0  0  0  0999 V2000
  -35.2079   13.3010   46.3079 N   0  0  0  0  0  0  0  0  0  0  0  0
  -34.4874   11.8992   47.9545 C   0  0  0  0  0  0  0  0  0  0  0  0
  -34.4589    6.3219   45.1479 O   0  0  0  0  0  0  0  0  0  0  0  0
  -34.3475   10.9142   47.0133 C   0  0  0  0  0  0  0  0  0  0  0  0
  -34.3097    8.9567   45.0929 N   0  0  0  0  0  0  0  0  0  0  0  0
  -35.0539    6.3108   43.0653 O   0  5  0  0  0  0  0  0  0  0  0  0
  -34.6405   11.1473   45.7132 C   0  0  0  0  0  0  0  0  0  0  0  0
  -35.0822   12.3813   45.3883 C   0  0  0  0  0  0  0  0  0  0  0  0
  -34.9224   13.0667   47.5448 C   0  0  0  0  0  0  0  0  0  0  0  0
  -34.4479   10.1214   44.7896 C   0  0  0  0  0  0  0  0  0  0  0  0
  -33.9722    8.1659   43.9279 C   0  0  0  0  0  0  0  0  0  0  0  0
  -34.3398    8.8106   42.6602 C   0  0  0  0  0  0  0  0  0  0  0  0
  -34.5692    6.7690   44.0560 C   0  0  0  0  0  0  0  0  0  0  0  0
  -34.3027   10.4830   43.1154 S   0  0  0  0  0  0  0  0  0  0  0  0
  2  4  4  0  0  0  0
  4  7  4  0  0  0  0
  5 10  1  0  0  0  0
  5 11  1  0  0  0  0
  1  8  4  0  0  0  0
  7  8  4  0  0  0  0
  1  9  4  0  0  0  0
  2  9  4  0  0  0  0
  7 10  1  0  0  0  0
 10 14  1  0  0  0  0
 11 12  1  0  0  0  0
 12 14  1  0  0  0  0
  3 13  4  0  0  0  0
  6 13  4  0  0  0  0
 11 13  1  0  0  0  0
M  END
$$$$
