7FN6
  PyMOL2.5          3D                             0

 15 15  0  0  0  0  0  0  0  0999 V2000
   70.6542   35.3864  -56.9429 N   0  0  0  0  0  0  0  0  0  0  0  0
   70.1164   41.0400  -55.9147 C   0  0  0  0  0  0  0  0  0  0  0  0
   70.3947   38.8840  -56.5286 O   0  0  0  0  0  0  0  0  0  0  0  0
   69.7103   40.0331  -56.9634 C   0  0  0  0  0  0  0  0  0  0  0  0
   69.2761   37.5619  -57.7466 O   0  0  0  0  0  0  0  0  0  0  0  0
   70.1233   37.7052  -56.9533 C   0  0  0  0  0  0  0  0  0  0  0  0
   71.7078   36.8025  -55.5661 O   0  0  0  0  0  0  0  0  0  0  0  0
   70.9324   36.5836  -56.3969 C   0  0  0  0  0  0  0  0  0  0  0  0
   71.2669   34.1659  -56.6271 C   0  0  0  0  0  0  0  0  0  0  0  0
   70.8095   32.9761  -57.1669 C   0  0  0  0  0  0  0  0  0  0  0  0
   71.4252   31.7971  -56.8035 C   0  0  0  0  0  0  0  0  0  0  0  0
   72.4711   31.7984  -55.9191 C   0  0  0  0  0  0  0  0  0  0  0  0
   72.9334   33.0082  -55.3899 C   0  0  0  0  0  0  0  0  0  0  0  0
   72.3194   34.1834  -55.7597 C   0  0  0  0  0  0  0  0  0  0  0  0
   74.0748   33.0391  -54.4303 C   0  0  0  0  0  0  0  0  0  0  0  0
  2  4  1  0  0  0  0
  3  4  1  0  0  0  0
  5  6  2  0  0  0  0
  3  6  1  0  0  0  0
  1  8  1  0  0  0  0
  6  8  1  0  0  0  0
  7  8  2  0  0  0  0
  1  9  1  0  0  0  0
  9 10  4  0  0  0  0
 10 11  4  0  0  0  0
 11 12  4  0  0  0  0
 12 13  4  0  0  0  0
 13 14  4  0  0  0  0
 13 15  1  0  0  0  0
  9 14  4  0  0  0  0
M  END
$$$$
