7FN7
  PyMOL2.5          3D                             0

 26 26  0  0  0  0  0  0  0  0999 V2000
    0.8414   78.9780    0.6019 N   0  0  0  0  0  0  0  0  0  0  0  0
    3.1387   79.2958   -3.9322 C   0  0  0  0  0  0  0  0  0  0  0  0
    1.9615   79.3367   -3.1793 O   0  0  0  0  0  0  0  0  0  0  0  0
   -2.2633   75.8134   -2.0771 Cl  0  0  0  0  0  0  0  0  0  0  0  0
    1.5904   80.6196   -2.7524 C   0  0  0  0  0  0  0  0  0  0  0  0
   -2.7513   76.8728    0.1540 N   0  0  0  0  0  0  0  0  0  0  0  0
    0.9470   80.4105   -1.3960 C   0  0  0  0  0  0  0  0  0  0  0  0
   -1.2385   78.2235    1.4355 N   0  0  0  0  0  0  0  0  0  0  0  0
    1.6947   79.3869   -0.5545 C   0  0  0  0  0  0  0  0  0  0  0  0
   -0.2913   78.1923    0.4407 C   0  0  0  0  0  0  0  0  0  0  0  0
   -0.6021   77.4754   -0.7391 C   0  0  0  0  0  0  0  0  0  0  0  0
   -1.8390   76.8322   -0.7759 C   0  0  0  0  0  0  0  0  0  0  0  0
   -2.3847   77.5811    1.1955 C   0  0  0  0  0  0  0  0  0  0  0  0
    8.4710   54.7531   19.1203 N   0  0  0  0  0  0  0  0  0  0  0  0
   13.6528   53.9430   16.9090 C   0  0  0  0  0  0  0  0  0  0  0  0
   12.3076   54.0070   17.3154 O   0  0  0  0  0  0  0  0  0  0  0  0
    5.9724   55.9043   14.8324 Cl  0  0  0  0  0  0  0  0  0  0  0  0
   12.1513   53.9845   18.7133 C   0  0  0  0  0  0  0  0  0  0  0  0
    5.0942   56.0984   17.1966 N   0  0  0  0  0  0  0  0  0  0  0  0
   10.9149   54.8205   19.0441 C   0  0  0  0  0  0  0  0  0  0  0  0
    6.3375   55.6044   19.2146 N   0  0  0  0  0  0  0  0  0  0  0  0
    9.6465   54.2603   18.4110 C   0  0  0  0  0  0  0  0  0  0  0  0
    7.3831   55.1969   18.4549 C   0  0  0  0  0  0  0  0  0  0  0  0
    7.3294   55.2216   17.0352 C   0  0  0  0  0  0  0  0  0  0  0  0
    6.1480   55.7015   16.5084 C   0  0  0  0  0  0  0  0  0  0  0  0
    5.2800   56.0159   18.5269 C   0  0  0  0  0  0  0  0  0  0  0  0
  2  3  1  0  0  0  0
  3  5  1  0  0  0  0
  5  7  1  0  0  0  0
  6 12  4  0  0  0  0
  6 13  4  0  0  0  0
  8 10  4  0  0  0  0
  1  9  1  0  0  0  0
  7  9  1  0  0  0  0
  1 10  1  0  0  0  0
 10 11  4  0  0  0  0
 11 12  4  0  0  0  0
  4 12  1  0  0  0  0
  8 13  4  0  0  0  0
 15 16  1  0  0  0  0
 16 18  1  0  0  0  0
 18 20  1  0  0  0  0
 19 25  4  0  0  0  0
 19 26  4  0  0  0  0
 21 23  4  0  0  0  0
 14 22  1  0  0  0  0
 20 22  1  0  0  0  0
 14 23  1  0  0  0  0
 23 24  4  0  0  0  0
 24 25  4  0  0  0  0
 17 25  1  0  0  0  0
 21 26  4  0  0  0  0
M  END
$$$$
