7FN8
  PyMOL2.5          3D                             0

 14 14  0  0  0  0  0  0  0  0999 V2000
    2.4227   31.5190  -24.1019 N   0  3  0  0  0  0  0  0  0  0  0  0
    1.0815   31.7522  -24.6752 C   0  0  0  0  0  0  0  0  0  0  0  0
    2.7602   30.2643  -26.6621 O   0  0  0  0  0  0  0  0  0  0  0  0
   -0.3183   34.4514  -19.6211 Cl  0  0  0  0  0  0  0  0  0  0  0  0
    2.3745   31.5757  -22.6047 C   0  0  0  0  0  0  0  0  0  0  0  0
    4.7925   29.9688  -25.6234 N   0  0  0  0  0  0  0  0  0  0  0  0
    1.9421   32.8350  -22.2052 C   0  0  0  0  0  0  0  0  0  0  0  0
    2.8168   33.8383  -22.3727 C   0  0  0  0  0  0  0  0  0  0  0  0
    2.5913   35.1039  -21.8641 C   0  0  0  0  0  0  0  0  0  0  0  0
    1.5058   35.3212  -21.0921 C   0  0  0  0  0  0  0  0  0  0  0  0
    0.6909   34.2775  -20.8794 C   0  0  0  0  0  0  0  0  0  0  0  0
    0.8056   33.0335  -21.4840 C   0  0  0  0  0  0  0  0  0  0  0  0
    2.7720   30.1094  -24.3840 C   0  0  0  0  0  0  0  0  0  0  0  0
    3.4420   30.1135  -25.6749 C   0  0  0  0  0  0  0  0  0  0  0  0
  1  2  1  0  0  0  0
  1  5  1  0  0  0  0
  5  7  1  0  0  0  0
  6 14  1  0  0  0  0
  7  8  4  0  0  0  0
  8  9  4  0  0  0  0
  9 10  4  0  0  0  0
 10 11  4  0  0  0  0
  4 11  1  0  0  0  0
  7 12  4  0  0  0  0
 11 12  4  0  0  0  0
  1 13  1  0  0  0  0
 13 14  1  0  0  0  0
  3 14  2  0  0  0  0
M  END
$$$$
