7FNH
  PyMOL2.5          3D                             0

 15 15  0  0  0  0  0  0  0  0999 V2000
   75.2000  -30.6317   11.8729 N   0  0  0  0  0  0  0  0  0  0  0  0
   73.1166  -28.6249   12.5836 C   0  0  0  0  0  0  0  0  0  0  0  0
   74.8584  -31.1197    8.9242 O   0  0  0  0  0  0  0  0  0  0  0  0
   72.8605  -29.8107   11.6666 C   0  0  0  0  0  0  0  0  0  0  0  0
   79.3429  -32.5726   16.2136 N   0  0  0  0  0  0  0  0  0  0  0  0
   74.1261  -32.4922   12.5624 O   0  0  0  0  0  0  0  0  0  0  0  0
   74.1546  -30.1897   10.9263 C   0  0  0  0  0  0  0  0  0  0  0  0
   73.8773  -31.2599    9.8769 C   0  0  0  0  0  0  0  0  0  0  0  0
   75.0976  -31.7796   12.6471 C   0  0  0  0  0  0  0  0  0  0  0  0
   76.2130  -32.0718   13.5613 C   0  0  0  0  0  0  0  0  0  0  0  0
   76.0926  -32.9868   14.5642 C   0  0  0  0  0  0  0  0  0  0  0  0
   77.1218  -33.1934   15.4563 C   0  0  0  0  0  0  0  0  0  0  0  0
   78.3032  -32.4588   15.3301 C   0  0  0  0  0  0  0  0  0  0  0  0
   78.4135  -31.5576   14.2991 C   0  0  0  0  0  0  0  0  0  0  0  0
   77.3739  -31.3745   13.4299 C   0  0  0  0  0  0  0  0  0  0  0  0
  2  4  1  0  0  0  0
  4  7  1  0  0  0  0
  5 13  1  0  0  0  0
  6  9  2  0  0  0  0
  1  7  1  0  0  0  0
  3  8  1  0  0  0  0
  7  8  1  0  0  0  0
  1  9  1  0  0  0  0
  9 10  1  0  0  0  0
 10 11  4  0  0  0  0
 10 15  4  0  0  0  0
 11 12  4  0  0  0  0
 12 13  4  0  0  0  0
 13 14  4  0  0  0  0
 14 15  4  0  0  0  0
M  END
$$$$
