7FNL
  PyMOL2.5          3D                             0

 14 15  0  0  0  0  0  0  0  0999 V2000
   91.7136   18.7733   -2.3687 N   0  0  0  0  0  0  0  0  0  0  0  0
   91.6865   19.6557   -0.0551 C   0  0  0  0  0  0  0  0  0  0  0  0
   90.9498   19.5570   -1.3870 C   0  0  0  0  0  0  0  0  0  0  0  0
   92.4719   17.7988   -4.2359 N   0  0  0  0  0  0  0  0  0  0  0  0
   91.4879   18.6132   -3.7567 C   0  0  0  0  0  0  0  0  0  0  0  0
   93.2284   17.4982   -3.1650 N   0  0  0  0  0  0  0  0  0  0  0  0
   89.2268   19.0960   -3.6130 C   0  0  0  0  0  0  0  0  0  0  0  0
   92.8302   18.0384   -2.0666 N   0  0  0  0  0  0  0  0  0  0  0  0
   88.2420   18.1143   -4.0807 C   0  0  0  0  0  0  0  0  0  0  0  0
   90.4327   19.1584   -4.4151 N   0  0  0  0  0  0  0  0  0  0  0  0
   87.9841   17.7998   -5.3684 C   0  0  0  0  0  0  0  0  0  0  0  0
   86.9729   16.7913   -5.4618 C   0  0  0  0  0  0  0  0  0  0  0  0
   86.5219   16.4072   -4.2510 C   0  0  0  0  0  0  0  0  0  0  0  0
   87.2914   17.2283   -3.0040 S   0  0  0  0  0  0  0  0  0  0  0  0
  1  3  1  0  0  0  0
  2  3  1  0  0  0  0
  4  5  4  0  0  0  0
  4  6  4  0  0  0  0
  1  5  4  0  0  0  0
  5 10  1  0  0  0  0
  6  8  4  0  0  0  0
  7 10  1  0  0  0  0
  1  8  4  0  0  0  0
  7  9  1  0  0  0  0
  9 14  4  0  0  0  0
  9 11  4  0  0  0  0
 11 12  4  0  0  0  0
 12 13  4  0  0  0  0
 13 14  4  0  0  0  0
M  END
$$$$
