7FNM
  PyMOL2.5          3D                             0

 42 42  0  0  0  0  0  0  0  0999 V2000
   23.6292  -14.0829  -17.7670 N   0  0  0  0  0  0  0  0  0  0  0  0
   22.1161  -14.9019  -21.6127 C   0  0  0  0  0  0  0  0  0  0  0  0
   22.8265  -15.1012  -20.4411 O   0  0  0  0  0  0  0  0  0  0  0  0
   23.9359  -14.2882  -20.3466 C   0  0  0  0  0  0  0  0  0  0  0  0
   22.9296  -15.2528  -13.7635 N   0  0  0  0  0  0  0  0  0  0  0  0
   25.6315  -14.2172  -17.4557 O   0  0  0  0  0  0  0  0  0  0  0  0
   23.6950  -13.4347  -19.0755 C   0  0  0  0  0  0  0  0  0  0  0  0
   24.6428  -14.3934  -17.0273 C   0  0  0  0  0  0  0  0  0  0  0  0
   24.4679  -14.9403  -15.6922 C   0  0  0  0  0  0  0  0  0  0  0  0
   25.5233  -14.9136  -14.7539 C   0  0  0  0  0  0  0  0  0  0  0  0
   25.1481  -14.9933  -13.2940 C   0  0  0  0  0  0  0  0  0  0  0  0
   23.9026  -15.1715  -12.9022 C   0  0  0  0  0  0  0  0  0  0  0  0
   23.1467  -15.1484  -15.0484 C   0  0  0  0  0  0  0  0  0  0  0  0
   26.7049  -14.6269  -12.1797 Br  0  0  0  0  0  0  0  0  0  0  0  0
    9.1941    9.8507   -2.2034 N   0  0  0  0  0  0  0  0  0  0  0  0
    7.8912   11.6274   -3.8082 C   0  0  0  0  0  0  0  0  0  0  0  0
    9.1870   11.6765   -4.3132 O   0  0  0  0  0  0  0  0  0  0  0  0
    9.6983   10.4008   -4.5805 C   0  0  0  0  0  0  0  0  0  0  0  0
   11.0509    6.6484    0.8260 N   0  0  0  0  0  0  0  0  0  0  0  0
    8.1951    9.3582   -0.2796 O   0  0  0  0  0  0  0  0  0  0  0  0
   10.2474    9.8238   -3.2268 C   0  0  0  0  0  0  0  0  0  0  0  0
    9.1786    9.2599   -0.9666 C   0  0  0  0  0  0  0  0  0  0  0  0
   10.3272    8.4818   -0.5013 C   0  0  0  0  0  0  0  0  0  0  0  0
   11.6207    8.6259   -1.0410 C   0  0  0  0  0  0  0  0  0  0  0  0
   12.5717    7.7274   -0.6410 C   0  0  0  0  0  0  0  0  0  0  0  0
   12.2657    6.7661    0.2787 C   0  0  0  0  0  0  0  0  0  0  0  0
   10.0955    7.4997    0.4348 C   0  0  0  0  0  0  0  0  0  0  0  0
   14.3302    7.7387   -1.4126 Br  0  0  0  0  0  0  0  0  0  0  0  0
   32.5850   18.8743    2.7560 N   0  0  0  0  0  0  0  0  0  0  0  0
   36.4842   19.1448    2.8982 C   0  0  0  0  0  0  0  0  0  0  0  0
   35.2074   18.7642    2.4889 O   0  0  0  0  0  0  0  0  0  0  0  0
   34.5261   19.7052    1.7152 C   0  0  0  0  0  0  0  0  0  0  0  0
   31.7342   15.4807    0.2682 N   0  0  0  0  0  0  0  0  0  0  0  0
   31.6074   17.8444    4.3882 O   0  0  0  0  0  0  0  0  0  0  0  0
   33.1549   19.0794    1.4434 C   0  0  0  0  0  0  0  0  0  0  0  0
   31.9039   17.8019    3.2363 C   0  0  0  0  0  0  0  0  0  0  0  0
   31.5668   16.6197    2.3667 C   0  0  0  0  0  0  0  0  0  0  0  0
   30.7319   15.6073    2.8794 C   0  0  0  0  0  0  0  0  0  0  0  0
   30.4448   14.5920    2.0424 C   0  0  0  0  0  0  0  0  0  0  0  0
   30.9622   14.5650    0.7640 C   0  0  0  0  0  0  0  0  0  0  0  0
   32.0335   16.4914    1.0702 C   0  0  0  0  0  0  0  0  0  0  0  0
   29.3136   13.1337    2.5349 Br  0  0  0  0  0  0  0  0  0  0  0  0
  2  3  1  0  0  0  0
  3  4  1  0  0  0  0
  4  7  1  0  0  0  0
  5 12  4  0  0  0  0
  5 13  4  0  0  0  0
  6  8  2  0  0  0  0
  1  7  1  0  0  0  0
  1  8  1  0  0  0  0
  8  9  1  0  0  0  0
  9 10  4  0  0  0  0
 10 11  4  0  0  0  0
 11 14  1  0  0  0  0
 11 12  4  0  0  0  0
  9 13  4  0  0  0  0
 16 17  1  0  0  0  0
 17 18  1  0  0  0  0
 18 21  1  0  0  0  0
 19 26  4  0  0  0  0
 19 27  4  0  0  0  0
 20 22  2  0  0  0  0
 15 21  1  0  0  0  0
 15 22  1  0  0  0  0
 22 23  1  0  0  0  0
 23 24  4  0  0  0  0
 24 25  4  0  0  0  0
 25 28  1  0  0  0  0
 25 26  4  0  0  0  0
 23 27  4  0  0  0  0
 30 31  1  0  0  0  0
 31 32  1  0  0  0  0
 32 35  1  0  0  0  0
 33 40  4  0  0  0  0
 33 41  4  0  0  0  0
 34 36  2  0  0  0  0
 29 35  1  0  0  0  0
 29 36  1  0  0  0  0
 36 37  1  0  0  0  0
 37 38  4  0  0  0  0
 38 39  4  0  0  0  0
 39 42  1  0  0  0  0
 39 40  4  0  0  0  0
 37 41  4  0  0  0  0
M  END
$$$$
