7FNO
  PyMOL2.5          3D                             0

 14 14  0  0  0  0  0  0  0  0999 V2000
   -0.0618   28.8611   28.4555 C   0  0  0  0  0  0  0  0  0  0  0  0
   -0.1405   30.4594   31.6143 O   0  0  0  0  0  0  0  0  0  0  0  0
    0.0270   27.6290   27.8987 C   0  0  0  0  0  0  0  0  0  0  0  0
    0.3994   33.7441   32.1826 O   0  0  0  0  0  0  0  0  0  0  0  0
    0.1988   26.5163   28.7087 C   0  0  0  0  0  0  0  0  0  0  0  0
    1.7110   33.0101   30.6640 O   0  5  0  0  0  0  0  0  0  0  0  0
    0.2964   26.6145   30.0753 C   0  0  0  0  0  0  0  0  0  0  0  0
    0.2118   27.8630   30.6193 C   0  0  0  0  0  0  0  0  0  0  0  0
    0.0140   28.9898   29.8206 C   0  0  0  0  0  0  0  0  0  0  0  0
   -0.1732   30.3348   30.4390 C   0  0  0  0  0  0  0  0  0  0  0  0
   -0.3973   31.4837   29.5641 C   0  0  0  0  0  0  0  0  0  0  0  0
   -0.6498   32.7452   30.3281 C   0  0  0  0  0  0  0  0  0  0  0  0
    0.5963   33.1976   31.1243 C   0  0  0  0  0  0  0  0  0  0  0  0
    0.2644   25.3588   28.1517 F   0  0  0  0  0  0  0  0  0  0  0  0
  1  3  4  0  0  0  0
  3  5  4  0  0  0  0
  5 14  1  0  0  0  0
  5  7  4  0  0  0  0
  7  8  4  0  0  0  0
  1  9  4  0  0  0  0
  8  9  4  0  0  0  0
  9 10  1  0  0  0  0
  2 10  2  0  0  0  0
 10 11  1  0  0  0  0
 11 12  1  0  0  0  0
 12 13  1  0  0  0  0
  4 13  4  0  0  0  0
  6 13  4  0  0  0  0
M  END
$$$$
