7FNP
  PyMOL2.5          3D                             0

 15 15  0  0  0  0  0  0  0  0999 V2000
   38.1036   19.5965  -21.1903 N   0  0  0  0  0  0  0  0  0  0  0  0
   37.2370   19.0024  -25.5749 C   0  0  0  0  0  0  0  0  0  0  0  0
   36.7976   20.2306  -22.9338 O   0  0  0  0  0  0  0  0  0  0  0  0
   38.5895   18.9376  -24.8648 C   0  0  0  0  0  0  0  0  0  0  0  0
   38.7640   21.4614  -19.7933 N   0  0  0  0  0  0  0  0  0  0  0  0
   41.3419   19.0550  -24.4675 O   0  0  0  0  0  0  0  0  0  0  0  0
   38.3450   18.4947  -23.4250 C   0  0  0  0  0  0  0  0  0  0  0  0
   41.5273   16.8506  -24.8547 O   0  5  0  0  0  0  0  0  0  0  0  0
   37.6791   19.5070  -22.5300 C   0  0  0  0  0  0  0  0  0  0  0  0
   37.8574   20.7434  -20.4753 C   0  0  0  0  0  0  0  0  0  0  0  0
   38.1268   22.5786  -19.2522 C   0  0  0  0  0  0  0  0  0  0  0  0
   36.8002   22.6822  -19.5232 C   0  0  0  0  0  0  0  0  0  0  0  0
   39.5124   17.9639  -25.5960 C   0  0  0  0  0  0  0  0  0  0  0  0
   40.9228   17.9636  -24.9080 C   0  0  0  0  0  0  0  0  0  0  0  0
   36.2021   21.4041  -20.4804 S   0  0  0  0  0  0  0  0  0  0  0  0
  2  4  1  0  0  0  0
  4  7  1  0  0  0  0
  5 10  4  0  0  0  0
  5 11  4  0  0  0  0
  1  9  1  0  0  0  0
  3  9  2  0  0  0  0
  7  9  1  0  0  0  0
  1 10  1  0  0  0  0
 10 15  4  0  0  0  0
 11 12  4  0  0  0  0
 12 15  4  0  0  0  0
  4 13  1  0  0  0  0
 13 14  1  0  0  0  0
  6 14  4  0  0  0  0
  8 14  4  0  0  0  0
M  END
$$$$
