7FNT
  PyMOL2.5          3D                             0

 36 36  0  0  0  0  0  0  0  0999 V2000
   31.1251  -42.2390  -34.4991 N   0  0  0  0  0  0  0  0  0  0  0  0
   32.5151  -38.2981  -35.2129 C   0  0  0  0  0  0  0  0  0  0  0  0
   29.2027  -43.7062  -37.2250 O   0  0  0  0  0  0  0  0  0  0  0  0
   32.2966  -39.5297  -34.6225 C   0  0  0  0  0  0  0  0  0  0  0  0
   31.0327  -39.8577  -34.1835 C   0  0  0  0  0  0  0  0  0  0  0  0
   29.9799  -38.9793  -34.3402 C   0  0  0  0  0  0  0  0  0  0  0  0
   30.2291  -37.7671  -34.9223 C   0  0  0  0  0  0  0  0  0  0  0  0
   31.4749  -37.4028  -35.3664 C   0  0  0  0  0  0  0  0  0  0  0  0
   30.8027  -41.1380  -33.4872 C   0  0  0  0  0  0  0  0  0  0  0  0
   29.9067  -42.6002  -35.3356 C   0  0  0  0  0  0  0  0  0  0  0  0
   30.3795  -43.2070  -36.6898 C   0  0  0  0  0  0  0  0  0  0  0  0
   28.7919  -36.5499  -35.0882 Br  0  0  0  0  0  0  0  0  0  0  0  0
   20.9842  -16.8957  -30.8687 N   0  0  0  0  0  0  0  0  0  0  0  0
   21.7671  -20.1283  -33.8088 C   0  0  0  0  0  0  0  0  0  0  0  0
   18.4456  -16.5786  -28.6908 O   0  0  0  0  0  0  0  0  0  0  0  0
   21.2071  -18.9886  -33.4049 C   0  0  0  0  0  0  0  0  0  0  0  0
   21.8757  -18.1632  -32.5542 C   0  0  0  0  0  0  0  0  0  0  0  0
   23.1029  -18.4699  -32.0465 C   0  0  0  0  0  0  0  0  0  0  0  0
   23.6603  -19.6182  -32.4558 C   0  0  0  0  0  0  0  0  0  0  0  0
   23.0014  -20.4407  -33.3426 C   0  0  0  0  0  0  0  0  0  0  0  0
   21.2853  -16.8723  -32.3023 C   0  0  0  0  0  0  0  0  0  0  0  0
   19.5522  -16.7028  -30.6233 C   0  0  0  0  0  0  0  0  0  0  0  0
   19.4873  -15.9257  -29.3155 C   0  0  0  0  0  0  0  0  0  0  0  0
   25.2793  -20.2232  -31.8765 Br  0  0  0  0  0  0  0  0  0  0  0  0
   22.4546  -20.5813   -4.1024 N   0  0  0  0  0  0  0  0  0  0  0  0
   24.7892  -17.2594   -5.5861 C   0  0  0  0  0  0  0  0  0  0  0  0
   21.0237  -18.0255   -1.7649 O   0  0  0  0  0  0  0  0  0  0  0  0
   23.8515  -18.1663   -5.2114 C   0  0  0  0  0  0  0  0  0  0  0  0
   23.5823  -19.2371   -5.9873 C   0  0  0  0  0  0  0  0  0  0  0  0
   24.2799  -19.4414   -7.1576 C   0  0  0  0  0  0  0  0  0  0  0  0
   25.2031  -18.5055   -7.4996 C   0  0  0  0  0  0  0  0  0  0  0  0
   25.4774  -17.4403   -6.7697 C   0  0  0  0  0  0  0  0  0  0  0  0
   22.4563  -20.1548   -5.6303 C   0  0  0  0  0  0  0  0  0  0  0  0
   21.3450  -19.9247   -3.2116 C   0  0  0  0  0  0  0  0  0  0  0  0
   22.0246  -18.9216   -2.1918 C   0  0  0  0  0  0  0  0  0  0  0  0
   26.1027  -18.6488   -9.0833 Br  0  0  0  0  0  0  0  0  0  0  0  0
  2  4  4  0  0  0  0
  4  5  4  0  0  0  0
  5  6  4  0  0  0  0
  6  7  4  0  0  0  0
  7 12  1  0  0  0  0
  2  8  4  0  0  0  0
  7  8  4  0  0  0  0
  1  9  1  0  0  0  0
  5  9  1  0  0  0  0
  1 10  1  0  0  0  0
 10 11  1  0  0  0  0
  3 11  1  0  0  0  0
 14 16  4  0  0  0  0
 16 17  4  0  0  0  0
 17 18  4  0  0  0  0
 18 19  4  0  0  0  0
 19 24  1  0  0  0  0
 14 20  4  0  0  0  0
 19 20  4  0  0  0  0
 13 21  1  0  0  0  0
 17 21  1  0  0  0  0
 13 22  1  0  0  0  0
 22 23  1  0  0  0  0
 15 23  1  0  0  0  0
 26 28  4  0  0  0  0
 28 29  4  0  0  0  0
 29 30  4  0  0  0  0
 30 31  4  0  0  0  0
 31 36  1  0  0  0  0
 26 32  4  0  0  0  0
 31 32  4  0  0  0  0
 25 33  1  0  0  0  0
 29 33  1  0  0  0  0
 25 34  1  0  0  0  0
 34 35  1  0  0  0  0
 27 35  1  0  0  0  0
M  END
$$$$
