7FNU
  PyMOL2.5          3D                             0

 24 24  0  0  0  0  0  0  0  0999 V2000
   31.1090   39.2139   12.6822 N   0  0  0  0  0  0  0  0  0  0  0  0
   28.5179   43.0701   13.4744 C   0  0  0  0  0  0  0  0  0  0  0  0
   29.4542   42.5957   12.5380 O   0  0  0  0  0  0  0  0  0  0  0  0
   30.7163   42.3607   12.9683 C   0  0  0  0  0  0  0  0  0  0  0  0
   30.8051   37.9816   13.0436 N   0  0  0  0  0  0  0  0  0  0  0  0
   31.0213   42.5485   14.1266 O   0  0  0  0  0  0  0  0  0  0  0  0
   33.3199   38.3218   13.6456 S   0  0  0  0  0  0  0  0  0  0  0  0
   31.5745   41.8657   11.8542 C   0  0  0  0  0  0  0  0  0  0  0  0
   31.8381   36.0624   14.0461 N   0  0  0  0  0  0  0  0  0  0  0  0
   32.3615   39.5611   12.9185 C   0  0  0  0  0  0  0  0  0  0  0  0
   31.8731   37.3271   13.5911 C   0  0  0  0  0  0  0  0  0  0  0  0
   33.0274   41.0668   12.5636 S   0  0  0  0  0  0  0  0  0  0  0  0
   24.9027   32.1971   31.7021 N   0  0  0  0  0  0  0  0  0  0  0  0
   26.0254   26.7535   31.6763 C   0  0  0  0  0  0  0  0  0  0  0  0
   26.8487   27.3986   30.7585 O   0  0  0  0  0  0  0  0  0  0  0  0
   27.0704   28.7373   30.8862 C   0  0  0  0  0  0  0  0  0  0  0  0
   24.3475   33.3829   31.5458 N   0  0  0  0  0  0  0  0  0  0  0  0
   27.7827   29.2588   30.0801 O   0  0  0  0  0  0  0  0  0  0  0  0
   26.7347   33.8101   32.4640 S   0  0  0  0  0  0  0  0  0  0  0  0
   26.3606   29.3753   32.0582 C   0  0  0  0  0  0  0  0  0  0  0  0
   24.8644   35.7063   31.8287 N   0  0  0  0  0  0  0  0  0  0  0  0
   26.1367   32.2172   32.1678 C   0  0  0  0  0  0  0  0  0  0  0  0
   25.1769   34.3940   31.9009 C   0  0  0  0  0  0  0  0  0  0  0  0
   27.1647   30.9096   32.4770 S   0  0  0  0  0  0  0  0  0  0  0  0
  2  3  1  0  0  0  0
  3  4  1  0  0  0  0
  4  8  1  0  0  0  0
  1  5  4  0  0  0  0
  5 11  4  0  0  0  0
  4  6  2  0  0  0  0
  8 12  1  0  0  0  0
  9 11  1  0  0  0  0
  1 10  4  0  0  0  0
  7 10  4  0  0  0  0
 10 12  1  0  0  0  0
  7 11  4  0  0  0  0
 14 15  1  0  0  0  0
 15 16  1  0  0  0  0
 16 20  1  0  0  0  0
 13 17  4  0  0  0  0
 17 23  4  0  0  0  0
 16 18  2  0  0  0  0
 20 24  1  0  0  0  0
 21 23  1  0  0  0  0
 13 22  4  0  0  0  0
 19 22  4  0  0  0  0
 22 24  1  0  0  0  0
 19 23  4  0  0  0  0
M  END
$$$$
