7FNW
  PyMOL2.5          3D                             0

 17 18  0  0  0  0  0  0  0  0999 V2000
   24.3769   28.2784   17.9542 N   0  0  0  0  0  0  0  0  0  0  0  0
   23.2912   25.6404   18.9352 C   0  0  0  0  0  0  0  0  0  0  0  0
   25.7796   31.7154   12.7270 O   0  0  0  0  0  0  0  0  0  0  0  0
   22.3763   24.6220   18.8129 C   0  0  0  0  0  0  0  0  0  0  0  0
   24.4330   30.4006   15.8953 N   0  3  0  0  0  0  0  0  0  0  0  0
   21.0493   24.9149   19.0327 C   0  0  0  0  0  0  0  0  0  0  0  0
   20.6466   26.1665   19.3922 C   0  0  0  0  0  0  0  0  0  0  0  0
   21.5689   27.1642   19.4818 C   0  0  0  0  0  0  0  0  0  0  0  0
   22.8918   26.9193   19.2516 C   0  0  0  0  0  0  0  0  0  0  0  0
   23.8947   28.0326   19.3393 C   0  0  0  0  0  0  0  0  0  0  0  0
   25.4806   29.2494   17.8400 C   0  0  0  0  0  0  0  0  0  0  0  0
   24.9346   30.5670   17.3077 C   0  0  0  0  0  0  0  0  0  0  0  0
   23.9489   28.9571   15.6752 C   0  0  0  0  0  0  0  0  0  0  0  0
   23.2933   28.5270   16.9852 C   0  0  0  0  0  0  0  0  0  0  0  0
   25.4859   30.8410   14.8830 C   0  0  0  0  0  0  0  0  0  0  0  0
   24.7915   31.3558   13.6071 C   0  0  0  0  0  0  0  0  0  0  0  0
   20.1269   24.0255   18.8147 F   0  0  0  0  0  0  0  0  0  0  0  0
  1 14  1  0  0  0  0
  2  4  4  0  0  0  0
  4  6  4  0  0  0  0
  5 12  1  0  0  0  0
  5 13  1  0  0  0  0
  5 15  1  0  0  0  0
  6 17  1  0  0  0  0
  6  7  4  0  0  0  0
  7  8  4  0  0  0  0
  2  9  4  0  0  0  0
  8  9  4  0  0  0  0
  9 10  1  0  0  0  0
  1 10  1  0  0  0  0
  1 11  1  0  0  0  0
 11 12  1  0  0  0  0
 13 14  1  0  0  0  0
 15 16  1  0  0  0  0
  3 16  1  0  0  0  0
M  END
$$$$
