7FNX
  PyMOL2.5          3D                             0

 12 12  0  0  0  0  0  0  0  0999 V2000
   22.4770   -9.9077    1.3474 N   0  0  0  0  0  0  0  0  0  0  0  0
   23.4971   -8.9049    1.1696 C   0  0  0  0  0  0  0  0  0  0  0  0
   21.7392  -11.9414    1.7765 O   0  0  0  0  0  0  0  0  0  0  0  0
   22.6649  -11.1909    1.8190 C   0  0  0  0  0  0  0  0  0  0  0  0
   27.6127  -13.3886    3.2265 O   0  0  0  0  0  0  0  0  0  0  0  0
   23.9867  -11.6798    2.2880 C   0  0  0  0  0  0  0  0  0  0  0  0
   25.1495  -10.9240    2.3249 C   0  0  0  0  0  0  0  0  0  0  0  0
   26.3377  -11.5304    2.6714 C   0  0  0  0  0  0  0  0  0  0  0  0
   26.3768  -12.8935    2.9819 C   0  0  0  0  0  0  0  0  0  0  0  0
   25.2228  -13.6440    2.9801 C   0  0  0  0  0  0  0  0  0  0  0  0
   24.0266  -13.0222    2.6338 C   0  0  0  0  0  0  0  0  0  0  0  0
   28.7231  -12.5484    3.1408 C   0  0  0  0  0  0  0  0  0  0  0  0
  1  2  1  0  0  0  0
  1  4  1  0  0  0  0
  3  4  2  0  0  0  0
  4  6  1  0  0  0  0
  5  9  1  0  0  0  0
  6  7  4  0  0  0  0
  7  8  4  0  0  0  0
  8  9  4  0  0  0  0
  9 10  4  0  0  0  0
  6 11  4  0  0  0  0
 10 11  4  0  0  0  0
  5 12  1  0  0  0  0
M  END
$$$$
