7FO1
  PyMOL2.5          3D                             0

 16 16  0  0  0  0  0  0  0  0999 V2000
   63.8573   18.6866    2.4919 N   0  0  0  0  0  0  0  0  0  0  0  0
   70.6019   18.8415   -0.3200 C   0  0  0  0  0  0  0  0  0  0  0  0
   65.5712   17.8285    3.7565 O   0  0  0  0  0  0  0  0  0  0  0  0
   70.8152   18.6808    1.1786 C   0  0  0  0  0  0  0  0  0  0  0  0
   62.3614   15.5212    3.6901 N   0  0  0  0  0  0  0  0  0  0  0  0
   71.6933   19.8126    1.6987 C   0  0  0  0  0  0  0  0  0  0  0  0
   69.4875   18.6790    1.9331 C   0  0  0  0  0  0  0  0  0  0  0  0
   66.8333   19.3807    1.4180 C   0  0  0  0  0  0  0  0  0  0  0  0
   66.0369   19.8668    2.6202 C   0  0  0  0  0  0  0  0  0  0  0  0
   65.1517   18.6966    3.0181 C   0  0  0  0  0  0  0  0  0  0  0  0
   62.8836   17.6798    2.7220 C   0  0  0  0  0  0  0  0  0  0  0  0
   61.5975   17.7636    2.1924 C   0  0  0  0  0  0  0  0  0  0  0  0
   60.7112   16.7231    2.4124 C   0  0  0  0  0  0  0  0  0  0  0  0
   61.1315   15.6278    3.1596 C   0  0  0  0  0  0  0  0  0  0  0  0
   63.2172   16.5343    3.4701 C   0  0  0  0  0  0  0  0  0  0  0  0
   68.4876   20.1362    1.4837 S   0  0  0  0  0  0  0  0  0  0  0  0
  2  4  1  0  0  0  0
  4  6  1  0  0  0  0
  4  7  1  0  0  0  0
  5 14  4  0  0  0  0
  5 15  4  0  0  0  0
  7 16  1  0  0  0  0
  8 16  1  0  0  0  0
  8  9  1  0  0  0  0
  9 10  1  0  0  0  0
  1 10  1  0  0  0  0
  3 10  2  0  0  0  0
  1 11  1  0  0  0  0
 11 12  4  0  0  0  0
 11 15  4  0  0  0  0
 12 13  4  0  0  0  0
 13 14  4  0  0  0  0
M  END
$$$$
