7FO4
  PyMOL2.5          3D                             0

 15 15  0  0  0  0  0  0  0  0999 V2000
    0.3268   33.6385   16.1736 N   0  0  0  0  0  0  0  0  0  0  0  0
    5.3368   40.8803   13.8069 C   0  0  0  0  0  0  0  0  0  0  0  0
    4.4952   37.5277   13.4251 O   0  0  0  0  0  0  0  0  0  0  0  0
    5.1429   39.6249   12.9735 C   0  0  0  0  0  0  0  0  0  0  0  0
   -0.4486   32.6176   16.6712 N   0  0  0  0  0  0  0  0  0  0  0  0
    1.8226   32.2230   15.3035 O   0  0  0  0  0  0  0  0  0  0  0  0
    4.8152   39.9739   11.5428 C   0  0  0  0  0  0  0  0  0  0  0  0
    3.9755   38.8069   13.5005 C   0  0  0  0  0  0  0  0  0  0  0  0
    3.7479   36.5623   13.9666 C   0  0  0  0  0  0  0  0  0  0  0  0
    2.3780   36.7370   14.0365 C   0  0  0  0  0  0  0  0  0  0  0  0
    1.6091   35.6963   14.5547 C   0  0  0  0  0  0  0  0  0  0  0  0
    2.2347   34.5312   14.9772 C   0  0  0  0  0  0  0  0  0  0  0  0
    3.6038   34.3951   14.9013 C   0  0  0  0  0  0  0  0  0  0  0  0
    4.3690   35.4175   14.3945 C   0  0  0  0  0  0  0  0  0  0  0  0
    1.4857   33.3778   15.4788 C   0  0  0  0  0  0  0  0  0  0  0  0
  2  4  1  0  0  0  0
  4  7  1  0  0  0  0
  4  8  1  0  0  0  0
  1  5  1  0  0  0  0
  6 15  2  0  0  0  0
  3  8  1  0  0  0  0
  3  9  1  0  0  0  0
  9 10  4  0  0  0  0
 10 11  4  0  0  0  0
 11 12  4  0  0  0  0
 12 13  4  0  0  0  0
 12 15  1  0  0  0  0
 13 14  4  0  0  0  0
  9 14  4  0  0  0  0
  1 15  1  0  0  0  0
M  END
$$$$
