7FO5
  PyMOL2.5          3D                             0

 16 17  0  0  0  0  0  0  0  0999 V2000
   27.6825    4.3819   11.6861 N   0  0  0  0  0  0  0  0  0  0  0  0
   29.0400    9.8104    9.9244 C   0  0  0  0  0  0  0  0  0  0  0  0
   27.4768    8.1020   10.1080 O   0  0  0  0  0  0  0  0  0  0  0  0
   28.7235    8.5117   10.3962 C   0  0  0  0  0  0  0  0  0  0  0  0
   27.2631   -0.4168   14.2657 N   0  0  0  0  0  0  0  0  0  0  0  0
   29.8211    4.8313   12.1208 O   0  0  0  0  0  0  0  0  0  0  0  0
   29.4354    7.5494   11.0320 C   0  0  0  0  0  0  0  0  0  0  0  0
   28.5946    6.4482   11.1234 C   0  0  0  0  0  0  0  0  0  0  0  0
   27.4311    6.8398   10.5514 C   0  0  0  0  0  0  0  0  0  0  0  0
   28.7885    5.1742   11.6981 C   0  0  0  0  0  0  0  0  0  0  0  0
   27.6054    3.1052   12.2354 C   0  0  0  0  0  0  0  0  0  0  0  0
   28.6526    2.2505   12.2826 C   0  0  0  0  0  0  0  0  0  0  0  0
   28.5599    1.0707   12.9557 C   0  0  0  0  0  0  0  0  0  0  0  0
   27.3794    0.7447   13.5854 C   0  0  0  0  0  0  0  0  0  0  0  0
   26.3179    1.5674   13.5182 C   0  0  0  0  0  0  0  0  0  0  0  0
   26.4349    2.7523   12.8327 C   0  0  0  0  0  0  0  0  0  0  0  0
  2  4  1  0  0  0  0
  3  4  4  0  0  0  0
  4  7  4  0  0  0  0
  5 14  1  0  0  0  0
  6 10  2  0  0  0  0
  7  8  4  0  0  0  0
  3  9  4  0  0  0  0
  8  9  4  0  0  0  0
  1 10  1  0  0  0  0
  8 10  1  0  0  0  0
  1 11  1  0  0  0  0
 11 16  4  0  0  0  0
 11 12  4  0  0  0  0
 12 13  4  0  0  0  0
 13 14  4  0  0  0  0
 14 15  4  0  0  0  0
 15 16  4  0  0  0  0
M  END
$$$$
