7FOE
  PyMOL2.5          3D                             0

 17 18  0  0  0  0  0  0  0  0999 V2000
  -20.0377  -11.0673   54.8097 N   0  0  0  0  0  0  0  0  0  0  0  0
  -18.5287  -11.1151   56.4828 C   0  0  0  0  0  0  0  0  0  0  0  0
  -16.7888  -11.8653   53.1658 O   0  0  0  0  0  0  0  0  0  0  0  0
  -13.5908  -16.0194   49.4817 Cl  0  0  0  0  0  0  0  0  0  0  0  0
  -11.5565  -14.6195   51.4440 Cl  0  0  0  0  0  0  0  0  0  0  0  0
  -19.7567  -10.5558   56.0073 C   0  0  0  0  0  0  0  0  0  0  0  0
  -19.0348  -11.9187   54.5420 N   0  0  0  0  0  0  0  0  0  0  0  0
  -18.0863  -11.9808   55.5348 C   0  0  0  0  0  0  0  0  0  0  0  0
  -17.1016  -14.1003   52.5631 N   0  0  0  0  0  0  0  0  0  0  0  0
  -19.0054  -12.6595   53.3126 C   0  0  0  0  0  0  0  0  0  0  0  0
  -17.5247  -12.8433   53.0152 C   0  0  0  0  0  0  0  0  0  0  0  0
  -15.7663  -14.3399   52.2809 C   0  0  0  0  0  0  0  0  0  0  0  0
  -14.8669  -13.7520   53.0755 C   0  0  0  0  0  0  0  0  0  0  0  0
  -13.5484  -13.8404   52.7851 C   0  0  0  0  0  0  0  0  0  0  0  0
  -13.1312  -14.5417   51.7067 C   0  0  0  0  0  0  0  0  0  0  0  0
  -13.9984  -15.1735   50.9001 C   0  0  0  0  0  0  0  0  0  0  0  0
  -15.3676  -15.1029   51.1655 C   0  0  0  0  0  0  0  0  0  0  0  0
  1  6  4  0  0  0  0
  2  6  4  0  0  0  0
  1  7  4  0  0  0  0
  7  8  4  0  0  0  0
  7 10  1  0  0  0  0
  2  8  4  0  0  0  0
  9 11  1  0  0  0  0
  9 12  1  0  0  0  0
  3 11  2  0  0  0  0
 10 11  1  0  0  0  0
 12 13  4  0  0  0  0
 12 17  4  0  0  0  0
 13 14  4  0  0  0  0
 14 15  4  0  0  0  0
  5 15  1  0  0  0  0
 15 16  4  0  0  0  0
  4 16  1  0  0  0  0
 16 17  4  0  0  0  0
M  END
$$$$
