7FOF
  PyMOL2.5          3D                             0

 14 14  0  0  0  0  0  0  0  0999 V2000
  -21.0025    3.0430    9.3243 N   0  3  0  0  0  0  0  0  0  0  0  0
  -13.8531    2.9323   13.8202 C   0  0  0  0  0  0  0  0  0  0  0  0
  -18.2137    2.2916   11.7797 O   0  0  0  0  0  0  0  0  0  0  0  0
  -13.7376    5.5849   12.8106 Cl  0  0  0  0  0  0  0  0  0  0  0  0
  -14.9963    3.4485   13.0297 C   0  0  0  0  0  0  0  0  0  0  0  0
  -20.0171    0.6083    9.0620 O   0  0  0  0  0  0  0  0  0  0  0  0
  -16.1499    2.5979   12.8080 C   0  0  0  0  0  0  0  0  0  0  0  0
  -17.1502    3.0978   12.0366 C   0  0  0  0  0  0  0  0  0  0  0  0
  -17.0360    4.4020   11.5101 C   0  0  0  0  0  0  0  0  0  0  0  0
  -15.9395    5.1670   11.7440 C   0  0  0  0  0  0  0  0  0  0  0  0
  -14.9816    4.6554   12.4906 C   0  0  0  0  0  0  0  0  0  0  0  0
  -18.4038    1.9938   10.3986 C   0  0  0  0  0  0  0  0  0  0  0  0
  -19.7497    1.2060   10.2992 C   0  0  0  0  0  0  0  0  0  0  0  0
  -20.9021    2.1825   10.5626 C   0  0  0  0  0  0  0  0  0  0  0  0
  2  5  1  0  0  0  0
  5  7  4  0  0  0  0
  5 11  4  0  0  0  0
  3  8  1  0  0  0  0
  7  8  4  0  0  0  0
  8  9  4  0  0  0  0
  9 10  4  0  0  0  0
 10 11  4  0  0  0  0
  4 11  1  0  0  0  0
  3 12  1  0  0  0  0
 12 13  1  0  0  0  0
  6 13  1  0  0  0  0
 13 14  1  0  0  0  0
  1 14  1  0  0  0  0
M  END
$$$$
