7FOH
  PyMOL2.5          3D                             0

 30 30  0  0  0  0  0  0  0  0999 V2000
   15.2765   50.0983  -48.1525 N   0  3  0  0  0  0  0  0  0  0  0  0
   15.3430   48.6073  -47.9894 C   0  0  0  0  0  0  0  0  0  0  0  0
   13.3155   54.2813  -50.5955 O   0  0  0  0  0  0  0  0  0  0  0  0
   16.6173   50.6189  -48.5250 C   0  0  0  0  0  0  0  0  0  0  0  0
   13.4094   52.3332  -49.6315 N   0  0  0  0  0  0  0  0  0  0  0  0
   14.2909   50.3921  -49.2279 C   0  0  0  0  0  0  0  0  0  0  0  0
   13.2479   51.3609  -48.7040 C   0  0  0  0  0  0  0  0  0  0  0  0
   12.9062   53.5615  -49.6380 C   0  0  0  0  0  0  0  0  0  0  0  0
   12.0186   54.0648  -48.6068 C   0  0  0  0  0  0  0  0  0  0  0  0
   11.4129   55.1793  -49.0219 C   0  0  0  0  0  0  0  0  0  0  0  0
   10.7387   55.9617  -48.2048 C   0  0  0  0  0  0  0  0  0  0  0  0
   10.6401   55.6501  -46.9345 C   0  0  0  0  0  0  0  0  0  0  0  0
   11.2323   54.4800  -46.4244 C   0  0  0  0  0  0  0  0  0  0  0  0
   11.9309   53.6698  -47.3053 C   0  0  0  0  0  0  0  0  0  0  0  0
    9.9692   56.4906  -46.2319 F   0  0  0  0  0  0  0  0  0  0  0  0
   12.7004   56.3767  -13.8377 N   0  3  0  0  0  0  0  0  0  0  0  0
   11.4659   56.0434  -13.1285 C   0  0  0  0  0  0  0  0  0  0  0  0
   10.2223   55.0254  -16.9655 O   0  0  0  0  0  0  0  0  0  0  0  0
   12.7924   57.8590  -13.8815 C   0  0  0  0  0  0  0  0  0  0  0  0
   12.2356   54.3197  -16.8727 N   0  0  0  0  0  0  0  0  0  0  0  0
   12.7146   55.8642  -15.2524 C   0  0  0  0  0  0  0  0  0  0  0  0
   12.2882   54.3934  -15.4689 C   0  0  0  0  0  0  0  0  0  0  0  0
   11.1454   54.7194  -17.5657 C   0  0  0  0  0  0  0  0  0  0  0  0
   11.2100   54.6537  -19.0373 C   0  0  0  0  0  0  0  0  0  0  0  0
   10.0261   54.3478  -19.6460 C   0  0  0  0  0  0  0  0  0  0  0  0
    9.8590   54.2850  -20.9535 C   0  0  0  0  0  0  0  0  0  0  0  0
   10.8975   54.5332  -21.7275 C   0  0  0  0  0  0  0  0  0  0  0  0
   12.1613   54.8500  -21.1947 C   0  0  0  0  0  0  0  0  0  0  0  0
   12.3196   54.9046  -19.8297 C   0  0  0  0  0  0  0  0  0  0  0  0
   10.6428   54.5248  -22.9343 F   0  0  0  0  0  0  0  0  0  0  0  0
  1  2  1  0  0  0  0
  1  4  1  0  0  0  0
  5  7  2  0  0  0  0
  5  8  1  0  0  0  0
  1  6  1  0  0  0  0
  6  7  1  0  0  0  0
  3  8  2  0  0  0  0
  8  9  1  0  0  0  0
  9 10  4  0  0  0  0
  9 14  4  0  0  0  0
 10 11  4  0  0  0  0
 11 12  4  0  0  0  0
 12 13  4  0  0  0  0
 12 15  1  0  0  0  0
 13 14  4  0  0  0  0
 16 17  1  0  0  0  0
 16 19  1  0  0  0  0
 20 22  1  0  0  0  0
 20 23  1  0  0  0  0
 16 21  1  0  0  0  0
 21 22  1  0  0  0  0
 18 23  2  0  0  0  0
 23 24  1  0  0  0  0
 24 25  4  0  0  0  0
 24 29  4  0  0  0  0
 25 26  4  0  0  0  0
 26 27  4  0  0  0  0
 27 28  4  0  0  0  0
 27 30  1  0  0  0  0
 28 29  4  0  0  0  0
M  END
$$$$
