7FOK
  PyMOL2.5          3D                             0

 32 32  0  0  0  0  0  0  0  0999 V2000
   41.7353   29.6766   37.7894 N   0  0  0  0  0  0  0  0  0  0  0  0
   41.5313   28.2725   37.3842 C   0  0  0  0  0  0  0  0  0  0  0  0
   44.2214   28.1733   37.1376 O   0  0  0  0  0  0  0  0  0  0  0  0
   43.0424   29.8941   38.4473 C   0  0  0  0  0  0  0  0  0  0  0  0
   45.3770   29.9278   37.5660 O   0  0  0  0  0  0  0  0  0  0  0  0
   44.2107   29.2647   37.6792 C   0  0  0  0  0  0  0  0  0  0  0  0
   40.8991   31.2809   39.1396 O   0  0  0  0  0  0  0  0  0  0  0  0
   45.4710   31.1802   38.1846 C   0  0  0  0  0  0  0  0  0  0  0  0
   40.6527   30.3973   38.3525 C   0  0  0  0  0  0  0  0  0  0  0  0
   39.2449   30.0227   37.9997 C   0  0  0  0  0  0  0  0  0  0  0  0
   38.9999   29.4513   36.8253 C   0  0  0  0  0  0  0  0  0  0  0  0
   37.7274   29.0214   36.3587 C   0  0  0  0  0  0  0  0  0  0  0  0
   36.5260   29.3065   36.9866 C   0  0  0  0  0  0  0  0  0  0  0  0
   35.4756   28.7422   36.3426 C   0  0  0  0  0  0  0  0  0  0  0  0
   37.5449   28.2626   35.2694 C   0  0  0  0  0  0  0  0  0  0  0  0
   35.9327   27.8757   34.9976 S   0  0  0  0  0  0  0  0  0  0  0  0
   -8.5636   28.7875   14.4969 N   0  0  0  0  0  0  0  0  0  0  0  0
   -8.2317   27.9324   15.6269 C   0  0  0  0  0  0  0  0  0  0  0  0
   -9.6148   31.4256   15.3553 O   0  0  0  0  0  0  0  0  0  0  0  0
   -7.8654   30.0610   14.4046 C   0  0  0  0  0  0  0  0  0  0  0  0
   -7.4935   31.7698   15.9544 O   0  0  0  0  0  0  0  0  0  0  0  0
   -8.4493   31.1511   15.2736 C   0  0  0  0  0  0  0  0  0  0  0  0
  -10.0764   27.3568   13.6702 O   0  0  0  0  0  0  0  0  0  0  0  0
   -7.9255   32.7933   16.8803 C   0  0  0  0  0  0  0  0  0  0  0  0
   -9.4798   28.4214   13.5749 C   0  0  0  0  0  0  0  0  0  0  0  0
   -9.7510   29.3492   12.4634 C   0  0  0  0  0  0  0  0  0  0  0  0
   -9.8461   28.8417   11.2475 C   0  0  0  0  0  0  0  0  0  0  0  0
  -10.1403   29.5907   10.0534 C   0  0  0  0  0  0  0  0  0  0  0  0
   -9.7403   30.9285    9.7554 C   0  0  0  0  0  0  0  0  0  0  0  0
  -10.2487   31.3785    8.5746 C   0  0  0  0  0  0  0  0  0  0  0  0
  -10.9377   29.0860    9.0671 C   0  0  0  0  0  0  0  0  0  0  0  0
  -11.1946   30.2022    7.8270 S   0  0  0  0  0  0  0  0  0  0  0  0
  1  2  1  0  0  0  0
  1  4  1  0  0  0  0
  4  6  1  0  0  0  0
  5  6  1  0  0  0  0
  5  8  1  0  0  0  0
  3  6  2  0  0  0  0
  1  9  1  0  0  0  0
  7  9  2  0  0  0  0
  9 10  1  0  0  0  0
 10 11  1  0  0  0  0
 11 12  1  0  0  0  0
 12 13  4  0  0  0  0
 12 15  4  0  0  0  0
 13 14  4  0  0  0  0
 14 16  4  0  0  0  0
 15 16  4  0  0  0  0
 17 18  1  0  0  0  0
 17 20  1  0  0  0  0
 20 22  1  0  0  0  0
 21 22  1  0  0  0  0
 21 24  1  0  0  0  0
 19 22  2  0  0  0  0
 17 25  1  0  0  0  0
 23 25  2  0  0  0  0
 25 26  1  0  0  0  0
 26 27  1  0  0  0  0
 27 28  1  0  0  0  0
 28 29  4  0  0  0  0
 28 31  4  0  0  0  0
 29 30  4  0  0  0  0
 30 32  4  0  0  0  0
 31 32  4  0  0  0  0
M  END
$$$$
