7FOP
  PyMOL2.5          3D                             0

 14 14  0  0  0  0  0  0  0  0999 V2000
   36.5188  -10.3295  -15.2761 N   0  0  0  0  0  0  0  0  0  0  0  0
   33.0860   -8.5505  -14.2777 C   0  0  0  0  0  0  0  0  0  0  0  0
   37.5936   -6.9751  -15.8752 O   0  0  0  0  0  0  0  0  0  0  0  0
   34.2107   -7.7308  -14.8715 C   0  0  0  0  0  0  0  0  0  0  0  0
   36.4900   -7.1280  -13.9380 N   0  0  0  0  0  0  0  0  0  0  0  0
   35.4989   -8.1933  -14.2114 C   0  0  0  0  0  0  0  0  0  0  0  0
   36.0839   -9.3570  -14.8705 C   0  0  0  0  0  0  0  0  0  0  0  0
   37.4487   -6.6178  -14.7772 C   0  0  0  0  0  0  0  0  0  0  0  0
   38.2593   -5.5878  -14.1470 C   0  0  0  0  0  0  0  0  0  0  0  0
   37.7952   -4.9256  -13.0373 C   0  0  0  0  0  0  0  0  0  0  0  0
   38.6353   -4.0672  -12.3569 C   0  0  0  0  0  0  0  0  0  0  0  0
   39.9357   -3.8707  -12.8058 C   0  0  0  0  0  0  0  0  0  0  0  0
   40.3761   -4.5217  -13.9337 C   0  0  0  0  0  0  0  0  0  0  0  0
   39.5281   -5.3796  -14.6131 C   0  0  0  0  0  0  0  0  0  0  0  0
  2  4  1  0  0  0  0
  4  6  1  0  0  0  0
  5  6  1  0  0  0  0
  5  8  1  0  0  0  0
  1  7  3  0  0  0  0
  6  7  1  0  0  0  0
  3  8  2  0  0  0  0
  8  9  1  0  0  0  0
  9 10  4  0  0  0  0
  9 14  4  0  0  0  0
 10 11  4  0  0  0  0
 11 12  4  0  0  0  0
 12 13  4  0  0  0  0
 13 14  4  0  0  0  0
M  END
$$$$
