7FOQ
  PyMOL2.5          3D                             0

 18 18  0  0  0  0  0  0  0  0999 V2000
   22.6326  -13.2109  -20.4413 N   0  0  0  0  0  0  0  0  0  0  0  0
   21.5361  -12.3077  -19.9444 C   0  0  0  0  0  0  0  0  0  0  0  0
   23.4545  -11.6978  -22.4941 O   0  0  0  0  0  0  0  0  0  0  0  0
   25.8470  -11.4242  -18.3667 Cl  0  0  0  0  0  0  0  0  0  0  0  0
   23.6423  -15.4986  -16.9079 Cl  0  0  0  0  0  0  0  0  0  0  0  0
   22.4118  -13.7413  -21.7999 C   0  0  0  0  0  0  0  0  0  0  0  0
   22.5493  -12.7682  -24.0119 O   0  0  0  0  0  0  0  0  0  0  0  0
   22.8251  -12.6852  -22.7718 C   0  0  0  0  0  0  0  0  0  0  0  0
   24.7817  -14.1755  -20.0736 O   0  0  0  0  0  0  0  0  0  0  0  0
   21.8957  -13.8536  -24.3816 C   0  0  0  0  0  0  0  0  0  0  0  0
   23.8378  -13.5698  -19.6713 C   0  0  0  0  0  0  0  0  0  0  0  0
   23.8250  -13.1079  -18.3020 C   0  0  0  0  0  0  0  0  0  0  0  0
   24.9589  -13.4971  -17.4821 C   0  0  0  0  0  0  0  0  0  0  0  0
   24.9795  -14.5596  -16.7822 C   0  0  0  0  0  0  0  0  0  0  0  0
   26.0066  -14.9401  -15.9740 C   0  0  0  0  0  0  0  0  0  0  0  0
   27.0936  -14.1259  -15.8918 C   0  0  0  0  0  0  0  0  0  0  0  0
   27.1018  -12.9502  -16.6333 C   0  0  0  0  0  0  0  0  0  0  0  0
   25.9965  -12.7272  -17.4050 C   0  0  0  0  0  0  0  0  0  0  0  0
  1  2  1  0  0  0  0
  1  6  1  0  0  0  0
  6  8  1  0  0  0  0
  7  8  1  0  0  0  0
  7 10  1  0  0  0  0
  3  8  2  0  0  0  0
  1 11  1  0  0  0  0
  9 11  2  0  0  0  0
 11 12  1  0  0  0  0
 12 13  1  0  0  0  0
 13 18  4  0  0  0  0
  5 14  1  0  0  0  0
 13 14  4  0  0  0  0
 14 15  4  0  0  0  0
 15 16  4  0  0  0  0
 16 17  4  0  0  0  0
 17 18  4  0  0  0  0
  4 18  1  0  0  0  0
M  END
$$$$
