7FOX
  PyMOL2.5          3D                             0

 17 18  0  0  0  0  0  0  0  0999 V2000
   10.4507   11.2127  -27.7201 N   0  0  0  0  0  0  0  0  0  0  0  0
    7.3854   10.4693  -29.5451 C   0  0  0  0  0  0  0  0  0  0  0  0
    6.9732    6.4934  -28.7269 O   0  0  0  0  0  0  0  0  0  0  0  0
    7.2987    9.1154  -29.4040 C   0  0  0  0  0  0  0  0  0  0  0  0
   10.2170    8.2158  -24.0612 N   0  0  0  0  0  0  0  0  0  0  0  0
    9.0444    6.3656  -27.9685 O   0  5  0  0  0  0  0  0  0  0  0  0
    8.2258    8.4483  -28.6337 C   0  0  0  0  0  0  0  0  0  0  0  0
    9.2533    9.1249  -28.0334 C   0  0  0  0  0  0  0  0  0  0  0  0
    9.3372   10.4956  -28.2030 C   0  0  0  0  0  0  0  0  0  0  0  0
    8.3892   11.1611  -28.9331 C   0  0  0  0  0  0  0  0  0  0  0  0
   11.3081   10.5676  -26.7534 C   0  0  0  0  0  0  0  0  0  0  0  0
   10.5990   10.0665  -25.5403 C   0  0  0  0  0  0  0  0  0  0  0  0
    9.7684   10.8621  -24.7758 C   0  0  0  0  0  0  0  0  0  0  0  0
    9.1645   10.3264  -23.6478 C   0  0  0  0  0  0  0  0  0  0  0  0
    9.4180    9.0050  -23.3281 C   0  0  0  0  0  0  0  0  0  0  0  0
   10.7868    8.7545  -25.1509 C   0  0  0  0  0  0  0  0  0  0  0  0
    8.0709    6.9719  -28.4278 C   0  0  0  0  0  0  0  0  0  0  0  0
  2  4  4  0  0  0  0
  4  7  4  0  0  0  0
  5 15  4  0  0  0  0
  5 16  4  0  0  0  0
  6 17  4  0  0  0  0
  7 17  1  0  0  0  0
  7  8  4  0  0  0  0
  1  9  1  0  0  0  0
  8  9  4  0  0  0  0
  2 10  4  0  0  0  0
  9 10  4  0  0  0  0
  1 11  1  0  0  0  0
 11 12  1  0  0  0  0
 12 13  4  0  0  0  0
 12 16  4  0  0  0  0
 13 14  4  0  0  0  0
 14 15  4  0  0  0  0
  3 17  4  0  0  0  0
M  END
$$$$
