7FOY
  PyMOL2.5          3D                             0

 16 17  0  0  0  0  0  0  0  0999 V2000
   61.2526    1.3090   39.0079 N   0  0  0  0  0  0  0  0  0  0  0  0
   61.8090    0.0191   38.6408 C   0  0  0  0  0  0  0  0  0  0  0  0
   59.5247   -1.2505   37.9464 O   0  0  0  0  0  0  0  0  0  0  0  0
   61.6068    2.5641   38.5198 C   0  0  0  0  0  0  0  0  0  0  0  0
   60.8206    3.4831   39.1406 N   0  0  0  0  0  0  0  0  0  0  0  0
   60.2449    1.5395   39.9192 C   0  0  0  0  0  0  0  0  0  0  0  0
   60.0041    2.8691   39.9854 N   0  0  0  0  0  0  0  0  0  0  0  0
   58.1645   -0.2170   39.6046 C   0  0  0  0  0  0  0  0  0  0  0  0
   58.7397   -0.3776   38.2185 C   0  0  0  0  0  0  0  0  0  0  0  0
   58.3187    0.5781   37.2012 C   0  0  0  0  0  0  0  0  0  0  0  0
   59.0631    0.7449   36.0571 C   0  0  0  0  0  0  0  0  0  0  0  0
   58.6665    1.6721   35.1224 C   0  0  0  0  0  0  0  0  0  0  0  0
   57.5271    2.4270   35.3293 C   0  0  0  0  0  0  0  0  0  0  0  0
   56.7835    2.2471   36.4792 C   0  0  0  0  0  0  0  0  0  0  0  0
   57.1754    1.3213   37.4189 C   0  0  0  0  0  0  0  0  0  0  0  0
   59.4636    0.3163   40.7797 S   0  0  0  0  0  0  0  0  0  0  0  0
  1  2  1  0  0  0  0
  1  4  4  0  0  0  0
  4  5  4  0  0  0  0
  5  7  4  0  0  0  0
  1  6  4  0  0  0  0
  6 16  1  0  0  0  0
  6  7  4  0  0  0  0
  8 16  1  0  0  0  0
  3  9  2  0  0  0  0
  8  9  1  0  0  0  0
  9 10  1  0  0  0  0
 10 11  4  0  0  0  0
 10 15  4  0  0  0  0
 11 12  4  0  0  0  0
 12 13  4  0  0  0  0
 13 14  4  0  0  0  0
 14 15  4  0  0  0  0
M  END
$$$$
