7FP0
  PyMOL2.5          3D                             0

  9 10  0  0  0  0  0  0  0  0999 V2000
   36.4294   -6.9717  -11.8309 N   0  0  0  0  0  0  0  0  0  0  0  0
   38.2700   -5.3894  -12.6628 C   0  0  0  0  0  0  0  0  0  0  0  0
   35.0271   -7.9204  -13.4926 O   0  0  0  0  0  0  0  0  0  0  0  0
   37.4698   -4.6657  -11.6143 C   0  0  0  0  0  0  0  0  0  0  0  0
   34.6653   -8.2531  -11.2450 N   0  0  0  0  0  0  0  0  0  0  0  0
   36.8099   -5.7447  -12.4441 C   0  0  0  0  0  0  0  0  0  0  0  0
   36.2512   -6.8601  -10.3677 C   0  0  0  0  0  0  0  0  0  0  0  0
   34.7785   -7.2689  -10.1873 C   0  0  0  0  0  0  0  0  0  0  0  0
   35.3430   -7.7458  -12.3359 C   0  0  0  0  0  0  0  0  0  0  0  0
  2  4  1  0  0  0  0
  4  6  1  0  0  0  0
  5  8  1  0  0  0  0
  5  9  1  0  0  0  0
  1  6  1  0  0  0  0
  2  6  1  0  0  0  0
  1  7  1  0  0  0  0
  7  8  1  0  0  0  0
  1  9  1  0  0  0  0
  3  9  2  0  0  0  0
M  END
$$$$
