7FP1
  PyMOL2.5          3D                             0

 32 32  0  0  0  0  0  0  0  0999 V2000
   14.0068   25.8298  -12.9096 N   0  0  0  0  0  0  0  0  0  0  0  0
   12.7649   27.1034  -14.5725 C   0  0  0  0  0  0  0  0  0  0  0  0
   12.8495   24.1348  -14.9606 O   0  0  0  0  0  0  0  0  0  0  0  0
   13.3657   27.0863  -13.1762 C   0  0  0  0  0  0  0  0  0  0  0  0
   11.0925   24.3618  -13.6229 O   0  0  0  0  0  0  0  0  0  0  0  0
   12.4081   27.5299  -12.0567 C   0  0  0  0  0  0  0  0  0  0  0  0
   16.0431   26.6503  -12.6608 O   0  0  0  0  0  0  0  0  0  0  0  0
   13.1892   24.6765  -12.6872 C   0  0  0  0  0  0  0  0  0  0  0  0
   12.4190   24.3584  -13.8743 C   0  0  0  0  0  0  0  0  0  0  0  0
   10.5784   24.6632  -12.3404 C   0  0  0  0  0  0  0  0  0  0  0  0
   15.3299   25.6834  -12.7261 C   0  0  0  0  0  0  0  0  0  0  0  0
   15.8423   24.3280  -12.5212 C   0  0  0  0  0  0  0  0  0  0  0  0
   16.4249   23.6255  -13.5974 C   0  0  0  0  0  0  0  0  0  0  0  0
   16.8076   22.3993  -13.2487 C   0  0  0  0  0  0  0  0  0  0  0  0
   15.8065   23.6089  -11.3925 C   0  0  0  0  0  0  0  0  0  0  0  0
   16.4850   22.0955  -11.6862 S   0  0  0  0  0  0  0  0  0  0  0  0
   29.6592   35.0054    2.2703 N   0  0  0  0  0  0  0  0  0  0  0  0
   29.0543   32.6282    2.4415 C   0  0  0  0  0  0  0  0  0  0  0  0
   28.7633   34.3970   -0.2504 O   0  0  0  0  0  0  0  0  0  0  0  0
   29.4182   33.9019    3.1917 C   0  0  0  0  0  0  0  0  0  0  0  0
   30.8056   34.3590   -1.0561 O   0  0  0  0  0  0  0  0  0  0  0  0
   30.6165   33.6084    4.0732 C   0  0  0  0  0  0  0  0  0  0  0  0
   29.2537   36.9940    1.4035 O   0  0  0  0  0  0  0  0  0  0  0  0
   30.6265   34.7480    1.2351 C   0  0  0  0  0  0  0  0  0  0  0  0
   29.9335   34.4904   -0.0631 C   0  0  0  0  0  0  0  0  0  0  0  0
   30.3398   34.1088   -2.3345 C   0  0  0  0  0  0  0  0  0  0  0  0
   29.0773   36.2452    2.3095 C   0  0  0  0  0  0  0  0  0  0  0  0
   28.1672   36.6550    3.3640 C   0  0  0  0  0  0  0  0  0  0  0  0
   28.2521   36.2072    4.6833 C   0  0  0  0  0  0  0  0  0  0  0  0
   27.1814   36.6157    5.3883 C   0  0  0  0  0  0  0  0  0  0  0  0
   27.0931   37.4031    3.1391 C   0  0  0  0  0  0  0  0  0  0  0  0
   26.1202   37.5232    4.4668 S   0  0  0  0  0  0  0  0  0  0  0  0
  1  4  1  0  0  0  0
  2  4  1  0  0  0  0
  4  6  1  0  0  0  0
  5  9  1  0  0  0  0
  5 10  1  0  0  0  0
  1  8  1  0  0  0  0
  3  9  2  0  0  0  0
  8  9  1  0  0  0  0
  1 11  1  0  0  0  0
  7 11  2  0  0  0  0
 11 12  1  0  0  0  0
 12 13  4  0  0  0  0
 12 15  4  0  0  0  0
 13 14  4  0  0  0  0
 14 16  4  0  0  0  0
 15 16  4  0  0  0  0
 17 20  1  0  0  0  0
 18 20  1  0  0  0  0
 20 22  1  0  0  0  0
 21 25  1  0  0  0  0
 21 26  1  0  0  0  0
 17 24  1  0  0  0  0
 19 25  2  0  0  0  0
 24 25  1  0  0  0  0
 17 27  1  0  0  0  0
 23 27  2  0  0  0  0
 27 28  1  0  0  0  0
 28 29  4  0  0  0  0
 28 31  4  0  0  0  0
 29 30  4  0  0  0  0
 30 32  4  0  0  0  0
 31 32  4  0  0  0  0
M  END
$$$$
