7FP3
  PyMOL2.5          3D                             0

 16 16  0  0  0  0  0  0  0  0999 V2000
   -6.7720   38.8404    5.5973 N   0  0  0  0  0  0  0  0  0  0  0  0
   -6.2941   38.7771    7.8285 C   0  0  0  0  0  0  0  0  0  0  0  0
   -5.6912   40.3972    5.0116 O   0  0  0  0  0  0  0  0  0  0  0  0
   -5.9058   38.2620    6.5133 C   0  0  0  0  0  0  0  0  0  0  0  0
   -7.6185   42.0085    3.9494 N   0  0  0  0  0  0  0  0  0  0  0  0
   -6.5125   40.0011    4.9002 C   0  0  0  0  0  0  0  0  0  0  0  0
   -9.7815   43.3945    6.9398 N   0  0  0  0  0  0  0  0  0  0  0  0
   -7.4504   40.6163    3.8906 C   0  0  0  0  0  0  0  0  0  0  0  0
   -8.7688   41.7331    5.8538 N   0  0  0  0  0  0  0  0  0  0  0  0
   -8.1740   42.4003    2.8187 C   0  0  0  0  0  0  0  0  0  0  0  0
   -7.6105   43.6850    2.3403 C   0  0  0  0  0  0  0  0  0  0  0  0
   -8.2751   42.5561    4.9482 C   0  0  0  0  0  0  0  0  0  0  0  0
   -8.5022   43.9411    5.0401 C   0  0  0  0  0  0  0  0  0  0  0  0
   -9.3215   44.2434    6.0880 C   0  0  0  0  0  0  0  0  0  0  0  0
   -9.4835   42.2438    6.8098 C   0  0  0  0  0  0  0  0  0  0  0  0
   -9.9304   41.4160    7.8945 C   0  0  0  0  0  0  0  0  0  0  0  0
  1  4  1  0  0  0  0
  2  4  1  0  0  0  0
  5  8  1  0  0  0  0
  5 10  1  0  0  0  0
  5 12  1  0  0  0  0
  1  6  1  0  0  0  0
  3  6  2  0  0  0  0
  7 15  4  0  0  0  0
  6  8  1  0  0  0  0
 10 11  1  0  0  0  0
  9 12  4  0  0  0  0
 12 13  4  0  0  0  0
 13 14  4  0  0  0  0
  7 14  4  0  0  0  0
  9 15  4  0  0  0  0
 15 16  1  0  0  0  0
M  END
$$$$
