7FP4
  PyMOL2.5          3D                             0

 14 14  0  0  0  0  0  0  0  0999 V2000
   46.8708  -36.6586   13.8044 N   0  0  0  0  0  0  0  0  0  0  0  0
   45.7760  -36.2498   14.6977 C   0  0  0  0  0  0  0  0  0  0  0  0
   47.4604  -34.1446   14.5017 O   0  0  0  0  0  0  0  0  0  0  0  0
   47.2516  -35.7522   12.7375 C   0  0  0  0  0  0  0  0  0  0  0  0
   48.4403  -33.5612   12.7032 O   0  0  0  0  0  0  0  0  0  0  0  0
   47.7174  -34.4613   13.3633 C   0  0  0  0  0  0  0  0  0  0  0  0
   48.6309  -38.0397   13.3950 O   0  0  0  0  0  0  0  0  0  0  0  0
   48.7670  -33.8413   11.3744 C   0  0  0  0  0  0  0  0  0  0  0  0
   47.7311  -37.7008   14.1464 C   0  0  0  0  0  0  0  0  0  0  0  0
   47.4929  -38.3595   15.4322 C   0  0  0  0  0  0  0  0  0  0  0  0
   47.3017  -37.6467   16.6628 C   0  0  0  0  0  0  0  0  0  0  0  0
   47.1124  -38.5013   17.6991 C   0  0  0  0  0  0  0  0  0  0  0  0
   47.4390  -39.6997   15.5855 C   0  0  0  0  0  0  0  0  0  0  0  0
   47.1634  -40.1223   17.1930 S   0  0  0  0  0  0  0  0  0  0  0  0
  1  2  1  0  0  0  0
  1  4  1  0  0  0  0
  4  6  1  0  0  0  0
  5  6  1  0  0  0  0
  5  8  1  0  0  0  0
  3  6  2  0  0  0  0
  1  9  1  0  0  0  0
  7  9  2  0  0  0  0
  9 10  1  0  0  0  0
 10 11  4  0  0  0  0
 11 12  4  0  0  0  0
 12 14  4  0  0  0  0
 10 13  4  0  0  0  0
 13 14  4  0  0  0  0
M  END
$$$$
