7FP6
  PyMOL2.5          3D                             0

 21 21  0  0  0  0  0  0  0  0999 V2000
   71.6938    7.8953  -31.0383 N   0  0  0  0  0  0  0  0  0  0  0  0
   74.5648    5.5973  -27.2543 C   0  0  0  0  0  0  0  0  0  0  0  0
   75.5234    6.5867  -27.4684 C   0  0  0  0  0  0  0  0  0  0  0  0
   73.0134   10.3153  -27.0618 N   0  0  0  0  0  0  0  0  0  0  0  0
   75.1367    7.8743  -27.7967 C   0  0  0  0  0  0  0  0  0  0  0  0
   73.7996    8.1951  -27.9245 C   0  0  0  0  0  0  0  0  0  0  0  0
   72.8630    7.1780  -27.7478 C   0  0  0  0  0  0  0  0  0  0  0  0
   73.2584    5.9010  -27.3893 C   0  0  0  0  0  0  0  0  0  0  0  0
   73.3340    9.5932  -28.2783 C   0  0  0  0  0  0  0  0  0  0  0  0
   72.0978    9.6595  -29.2133 C   0  0  0  0  0  0  0  0  0  0  0  0
   71.8905    8.6538  -30.2469 C   0  0  0  0  0  0  0  0  0  0  0  0
   74.1480   10.1387  -28.7550 H   0  0  0  0  0  0  0  0  0  0  0  0
   74.7721    4.6119  -26.8393 H   0  0  0  0  0  0  0  0  0  0  0  0
   76.5832    6.3868  -27.3312 H   0  0  0  0  0  0  0  0  0  0  0  0
   75.9026    8.6336  -27.9501 H   0  0  0  0  0  0  0  0  0  0  0  0
   71.7862    7.3072  -27.7998 H   0  0  0  0  0  0  0  0  0  0  0  0
   72.5936    5.1366  -27.0148 H   0  0  0  0  0  0  0  0  0  0  0  0
   72.0337   10.6330  -29.6902 H   0  0  0  0  0  0  0  0  0  0  0  0
   71.2146    9.6345  -28.5774 H   0  0  0  0  0  0  0  0  0  0  0  0
   73.0722    9.7332  -26.2321 H   0  0  0  0  0  0  0  0  0  0  0  0
   73.5571   11.1622  -26.9329 H   0  0  0  0  0  0  0  0  0  0  0  0
  2 13  1  0  0  0  0
  2  3  4  0  0  0  0
  3  5  4  0  0  0  0
  3 14  1  0  0  0  0
  4  9  1  0  0  0  0
  4 20  1  0  0  0  0
  4 21  1  0  0  0  0
  5 15  1  0  0  0  0
  5  6  4  0  0  0  0
  6  7  4  0  0  0  0
  7 16  1  0  0  0  0
  2  8  4  0  0  0  0
  7  8  4  0  0  0  0
  8 17  1  0  0  0  0
  6  9  1  0  0  0  0
  9 12  1  0  0  0  0
  9 10  1  0  0  0  0
 10 11  1  0  0  0  0
 10 18  1  0  0  0  0
 10 19  1  0  0  0  0
  1 11  3  0  0  0  0
M  END
$$$$
