7FP7
  PyMOL2.5          3D                             0

 15 16  0  0  0  0  0  0  0  0999 V2000
   48.8769  -17.1709   38.4224 N   0  0  0  0  0  0  0  0  0  0  0  0
   44.2603  -18.4390   39.1060 C   0  0  0  0  0  0  0  0  0  0  0  0
   45.4712  -18.3980   38.4025 O   0  0  0  0  0  0  0  0  0  0  0  0
   46.5630  -17.7791   38.9148 C   0  0  0  0  0  0  0  0  0  0  0  0
   50.4445  -15.6710   38.8130 N   0  0  0  0  0  0  0  0  0  0  0  0
   46.5990  -17.2330   39.9875 O   0  0  0  0  0  0  0  0  0  0  0  0
   47.7154  -17.8878   37.9452 C   0  0  0  0  0  0  0  0  0  0  0  0
   50.7539  -16.8636   39.3679 N   0  0  0  0  0  0  0  0  0  0  0  0
   49.2477  -15.8385   38.2042 C   0  0  0  0  0  0  0  0  0  0  0  0
   49.8614  -17.7596   39.1629 N   0  0  0  0  0  0  0  0  0  0  0  0
   48.4736  -14.8429   37.4426 C   0  0  0  0  0  0  0  0  0  0  0  0
   49.2966  -13.5528   37.3163 C   0  0  0  0  0  0  0  0  0  0  0  0
   48.3936  -12.4047   37.7452 C   0  0  0  0  0  0  0  0  0  0  0  0
   47.0047  -12.9827   38.0116 C   0  0  0  0  0  0  0  0  0  0  0  0
   47.1884  -14.4841   38.1966 C   0  0  0  0  0  0  0  0  0  0  0  0
  2  3  1  0  0  0  0
  3  4  1  0  0  0  0
  4  7  1  0  0  0  0
  5  8  4  0  0  0  0
  5  9  4  0  0  0  0
  4  6  2  0  0  0  0
  1  7  1  0  0  0  0
  8 10  4  0  0  0  0
  1  9  4  0  0  0  0
  1 10  4  0  0  0  0
  9 11  1  0  0  0  0
 11 12  1  0  0  0  0
 12 13  1  0  0  0  0
 13 14  1  0  0  0  0
 14 15  1  0  0  0  0
 11 15  1  0  0  0  0
M  END
$$$$
