7FP9
  PyMOL2.5          3D                             0

 15 15  0  0  0  0  0  0  0  0999 V2000
   25.9665   58.4493  -19.2966 N   0  0  0  0  0  0  0  0  0  0  0  0
   24.3996   65.0582  -17.0797 C   0  0  0  0  0  0  0  0  0  0  0  0
   24.6024   62.8128  -17.2821 O   0  0  0  0  0  0  0  0  0  0  0  0
   23.6204   63.7774  -17.0653 C   0  0  0  0  0  0  0  0  0  0  0  0
   23.2688   61.5094  -18.3491 O   0  0  0  0  0  0  0  0  0  0  0  0
   24.3851   61.6525  -17.9487 C   0  0  0  0  0  0  0  0  0  0  0  0
   26.7018   58.5801  -21.5054 O   0  0  0  0  0  0  0  0  0  0  0  0
   25.4933   60.6397  -18.1702 C   0  0  0  0  0  0  0  0  0  0  0  0
   25.2945   56.7100  -20.9795 O   0  0  0  0  0  0  0  0  0  0  0  0
   26.0166   59.9735  -16.8064 C   0  0  0  0  0  0  0  0  0  0  0  0
   25.6250   58.5743  -16.9178 C   0  0  0  0  0  0  0  0  0  0  0  0
   26.5262   58.1033  -18.0175 C   0  0  0  0  0  0  0  0  0  0  0  0
   25.0113   59.6283  -19.2409 C   0  0  0  0  0  0  0  0  0  0  0  0
   27.6279   56.6688  -20.2064 C   0  0  0  0  0  0  0  0  0  0  0  0
   26.3337   57.5950  -20.6243 S   0  0  0  0  0  0  0  0  0  0  0  0
  2  4  1  0  0  0  0
  3  4  1  0  0  0  0
  5  6  2  0  0  0  0
  3  6  1  0  0  0  0
  6  8  1  0  0  0  0
  9 15  2  0  0  0  0
  8 10  1  0  0  0  0
 10 11  1  0  0  0  0
 11 12  1  0  0  0  0
  1 12  1  0  0  0  0
  1 13  1  0  0  0  0
  8 13  1  0  0  0  0
 14 15  1  0  0  0  0
  1 15  1  0  0  0  0
  7 15  2  0  0  0  0
M  END
$$$$
