7FR6
  PyMOL2.5          3D                             0

 35 37  0  0  0  0  0  0  0  0999 V2000
   -3.2327  -32.5252   22.6029 O   0  0  0  0  0  0  0  0  0  0  0  0
   -1.8503  -32.3608   22.5708 C   0  0  0  0  0  0  0  0  0  0  0  0
   -1.2238  -31.1877   22.5966 N   0  0  0  0  0  0  0  0  0  0  0  0
    0.1130  -31.4263   22.5576 C   0  0  0  0  0  0  0  0  0  0  0  0
    1.2322  -30.5628   22.5630 C   0  0  0  0  0  0  0  0  0  0  0  0
    2.4986  -31.1467   22.5113 C   0  0  0  0  0  0  0  0  0  0  0  0
    2.6039  -32.5395   22.4610 C   0  0  0  0  0  0  0  0  0  0  0  0
    1.5372  -33.3219   22.4596 N   0  0  0  0  0  0  0  0  0  0  0  0
    0.2970  -32.7703   22.5080 C   0  0  0  0  0  0  0  0  0  0  0  0
   -0.9428  -33.3259   22.5178 N   0  0  0  0  0  0  0  0  0  0  0  0
    0.9384  -29.0627   22.6232 C   0  0  0  0  0  0  0  0  0  0  0  0
    0.9489  -28.5318   23.6812 O   0  0  0  0  0  0  0  0  0  0  0  0
    0.5965  -28.3064   21.4218 N   0  0  0  0  0  0  0  0  0  0  0  0
    0.5879  -29.0563   20.1734 C   0  0  0  0  0  0  0  0  0  0  0  0
    0.8724  -28.1922   18.9534 C   0  0  0  0  0  0  0  0  0  0  0  0
    2.0851  -27.3011   19.1700 C   0  0  0  0  0  0  0  0  0  0  0  0
    1.6636  -25.9241   19.6524 C   0  0  0  0  0  0  0  0  0  0  0  0
    1.3590  -25.9044   21.1452 C   0  0  0  0  0  0  0  0  0  0  0  0
    0.2895  -26.8923   21.6104 C   0  0  0  0  0  0  0  0  0  0  0  0
   -3.6065  -31.7227   22.9199 H   0  0  0  0  0  0  0  0  0  0  0  0
    3.3859  -30.5365   22.5021 H   0  0  0  0  0  0  0  0  0  0  0  0
    3.5859  -32.9971   22.4284 H   0  0  0  0  0  0  0  0  0  0  0  0
   -1.1454  -34.2981   22.4863 H   0  0  0  0  0  0  0  0  0  0  0  0
   -0.3785  -29.5338   20.0561 H   0  0  0  0  0  0  0  0  0  0  0  0
    1.3635  -29.8068   20.1986 H   0  0  0  0  0  0  0  0  0  0  0  0
    0.0052  -27.5771   18.7500 H   0  0  0  0  0  0  0  0  0  0  0  0
    1.0683  -28.8205   18.0975 H   0  0  0  0  0  0  0  0  0  0  0  0
    2.6269  -27.2034   18.2373 H   0  0  0  0  0  0  0  0  0  0  0  0
    2.7329  -27.7574   19.9163 H   0  0  0  0  0  0  0  0  0  0  0  0
    2.4702  -25.2308   19.4580 H   0  0  0  0  0  0  0  0  0  0  0  0
    0.7825  -25.6084   19.1040 H   0  0  0  0  0  0  0  0  0  0  0  0
    2.2728  -26.1221   21.6745 H   0  0  0  0  0  0  0  0  0  0  0  0
    1.0278  -24.9067   21.3995 H   0  0  0  0  0  0  0  0  0  0  0  0
    0.1009  -26.7083   22.6651 H   0  0  0  0  0  0  0  0  0  0  0  0
   -0.6256  -26.6778   21.0675 H   0  0  0  0  0  0  0  0  0  0  0  0
  1 20  1  0  0  0  0
  1  2  1  0  0  0  0
  2  3  4  0  0  0  0
  2 10  4  0  0  0  0
  3  4  4  0  0  0  0
  4  5  4  0  0  0  0
  4  9  4  0  0  0  0
  5  6  4  0  0  0  0
  6  7  4  0  0  0  0
  6 21  1  0  0  0  0
  7  8  4  0  0  0  0
  7 22  1  0  0  0  0
  8  9  4  0  0  0  0
  9 10  4  0  0  0  0
 10 23  1  0  0  0  0
  5 11  1  0  0  0  0
 11 12  2  0  0  0  0
 11 13  1  0  0  0  0
 13 14  1  0  0  0  0
 14 24  1  0  0  0  0
 14 25  1  0  0  0  0
 14 15  1  0  0  0  0
 15 26  1  0  0  0  0
 15 27  1  0  0  0  0
 15 16  1  0  0  0  0
 16 17  1  0  0  0  0
 16 28  1  0  0  0  0
 16 29  1  0  0  0  0
 17 30  1  0  0  0  0
 17 31  1  0  0  0  0
 17 18  1  0  0  0  0
 18 19  1  0  0  0  0
 18 32  1  0  0  0  0
 18 33  1  0  0  0  0
 13 19  1  0  0  0  0
 19 34  1  0  0  0  0
 19 35  1  0  0  0  0
M  END
$$$$
