7FRA
  PyMOL2.5          3D                             0

 38 40  0  0  0  0  0  0  0  0999 V2000
  -34.1103   -5.0488   20.3422 O   0  0  0  0  0  0  0  0  0  0  0  0
  -33.5115   -4.7165   19.3770 C   0  0  0  0  0  0  0  0  0  0  0  0
  -34.1753   -4.6497   18.0992 N   0  0  0  0  0  0  0  0  0  0  0  0
  -33.4657   -4.2511   16.9269 C   0  0  0  0  0  0  0  0  0  0  0  0
  -34.0248   -4.2044   15.8817 O   0  0  0  0  0  0  0  0  0  0  0  0
  -31.9865   -3.8857   17.0372 C   0  0  0  0  0  0  0  0  0  0  0  0
  -31.2694   -3.4845   15.8849 C   0  0  0  0  0  0  0  0  0  0  0  0
  -29.9187   -3.1797   16.0442 C   0  0  0  0  0  0  0  0  0  0  0  0
  -29.3357   -3.2513   17.3155 C   0  0  0  0  0  0  0  0  0  0  0  0
  -30.0383   -3.6251   18.3709 N   0  0  0  0  0  0  0  0  0  0  0  0
  -31.3458   -3.9456   18.2588 C   0  0  0  0  0  0  0  0  0  0  0  0
  -32.0974   -4.3642   19.4748 N   0  0  0  0  0  0  0  0  0  0  0  0
  -28.9425   -2.6351   14.6211 S   0  0  0  0  0  0  0  0  0  0  0  0
  -29.2189   -3.4512   13.4374 O   0  0  0  0  0  0  0  0  0  0  0  0
  -27.5058   -2.8319   14.8230 O   0  0  0  0  0  0  0  0  0  0  0  0
  -29.3316   -0.9883   14.3748 N   0  0  0  0  0  0  0  0  0  0  0  0
  -29.9598   -0.3190   15.5085 C   0  0  0  0  0  0  0  0  0  0  0  0
  -29.6787    1.1769   15.6097 C   0  0  0  0  0  0  0  0  0  0  0  0
  -29.4914    1.8729   14.2633 C   0  0  0  0  0  0  0  0  0  0  0  0
  -28.1703    1.5060   13.5989 C   0  0  0  0  0  0  0  0  0  0  0  0
  -28.2838    0.3418   12.6029 C   0  0  0  0  0  0  0  0  0  0  0  0
  -29.4029   -0.6075   12.9817 C   0  0  0  0  0  0  0  0  0  0  0  0
  -35.1356   -4.8826   18.0305 H   0  0  0  0  0  0  0  0  0  0  0  0
  -31.7487   -3.4282   14.9132 H   0  0  0  0  0  0  0  0  0  0  0  0
  -28.2916   -2.9957   17.4327 H   0  0  0  0  0  0  0  0  0  0  0  0
  -31.6317   -4.4008   20.3555 H   0  0  0  0  0  0  0  0  0  0  0  0
  -29.5952   -0.7422   16.4351 H   0  0  0  0  0  0  0  0  0  0  0  0
  -31.0334   -0.4758   15.4414 H   0  0  0  0  0  0  0  0  0  0  0  0
  -28.7722    1.3161   16.1916 H   0  0  0  0  0  0  0  0  0  0  0  0
  -30.5022    1.6437   16.1494 H   0  0  0  0  0  0  0  0  0  0  0  0
  -29.4762    2.9375   14.4543 H   0  0  0  0  0  0  0  0  0  0  0  0
  -30.3490    1.6522   13.6193 H   0  0  0  0  0  0  0  0  0  0  0  0
  -27.5534    1.1368   14.3783 H   0  0  0  0  0  0  0  0  0  0  0  0
  -27.6592    2.3955   13.2183 H   0  0  0  0  0  0  0  0  0  0  0  0
  -28.3408    0.5651   11.5324 H   0  0  0  0  0  0  0  0  0  0  0  0
  -27.3805   -0.1736   12.7275 H   0  0  0  0  0  0  0  0  0  0  0  0
  -30.3745   -0.1740   12.7714 H   0  0  0  0  0  0  0  0  0  0  0  0
  -29.2751   -1.4715   12.3683 H   0  0  0  0  0  0  0  0  0  0  0  0
  1  2  2  0  0  0  0
  2  3  4  0  0  0  0
  2 12  4  0  0  0  0
  3 23  1  0  0  0  0
  3  4  4  0  0  0  0
  4  5  2  0  0  0  0
  4  6  4  0  0  0  0
  6  7  4  0  0  0  0
  7  8  4  0  0  0  0
  7 24  1  0  0  0  0
  8  9  4  0  0  0  0
  8 13  1  0  0  0  0
  9 10  4  0  0  0  0
  9 25  1  0  0  0  0
  6 11  4  0  0  0  0
 10 11  4  0  0  0  0
 11 12  4  0  0  0  0
 12 26  1  0  0  0  0
 13 14  2  0  0  0  0
 13 15  2  0  0  0  0
 13 16  1  0  0  0  0
 16 17  1  0  0  0  0
 17 27  1  0  0  0  0
 17 28  1  0  0  0  0
 17 18  1  0  0  0  0
 18 19  1  0  0  0  0
 18 29  1  0  0  0  0
 18 30  1  0  0  0  0
 19 31  1  0  0  0  0
 19 32  1  0  0  0  0
 19 20  1  0  0  0  0
 20 21  1  0  0  0  0
 20 33  1  0  0  0  0
 20 34  1  0  0  0  0
 21 22  1  0  0  0  0
 21 35  1  0  0  0  0
 21 36  1  0  0  0  0
 16 22  1  0  0  0  0
 22 37  1  0  0  0  0
 22 38  1  0  0  0  0
M  END
$$$$
