7FRB
  PyMOL2.5          3D                             0

 47 49  0  0  0  0  0  0  0  0999 V2000
    4.5946   -6.6338  -29.0731 C   0  0  0  0  0  0  0  0  0  0  0  0
    3.4636   -5.9614  -29.8347 C   0  0  0  0  0  0  0  0  0  0  0  0
    2.5077   -5.3191  -28.8199 C   0  0  0  0  0  0  0  0  0  0  0  0
    1.2791   -6.0688  -28.5859 N   0  0  0  0  0  0  0  0  0  0  0  0
    1.2845   -7.2016  -27.6792 C   0  0  0  0  0  0  0  0  0  0  0  0
    0.4966   -8.3508  -27.9717 C   0  0  0  0  0  0  0  0  0  0  0  0
   -0.3370   -8.7025  -28.9819 N   0  0  0  0  0  0  0  0  0  0  0  0
   -0.8048   -9.9283  -28.7311 C   0  0  0  0  0  0  0  0  0  0  0  0
   -0.2858  -10.3597  -27.5801 N   0  0  0  0  0  0  0  0  0  0  0  0
    0.5268   -9.3902  -27.0937 C   0  0  0  0  0  0  0  0  0  0  0  0
    1.2965   -9.2929  -25.9791 N   0  0  0  0  0  0  0  0  0  0  0  0
    2.0054   -8.2087  -25.7357 C   0  0  0  0  0  0  0  0  0  0  0  0
    2.0074   -7.1771  -26.5681 N   0  0  0  0  0  0  0  0  0  0  0  0
    2.1294   -3.9413  -29.3154 C   0  0  0  0  0  0  0  0  0  0  0  0
    3.1891   -3.0387  -28.9206 N   0  0  0  0  0  0  0  0  0  0  0  0
    2.8041   -1.6665  -28.7016 C   0  0  0  0  0  0  0  0  0  0  0  0
    3.8109   -0.6189  -28.2646 C   0  0  0  0  0  0  0  0  0  0  0  0
    3.5379   -0.2287  -26.8385 C   0  0  0  0  0  0  0  0  0  0  0  0
    3.4608    1.2111  -27.2870 C   0  0  0  0  0  0  0  0  0  0  0  0
    3.4058    0.7606  -28.7216 C   0  0  0  0  0  0  0  0  0  0  0  0
    5.2302   -0.9065  -28.5053 C   0  0  0  0  0  0  0  0  0  0  0  0
    1.6679   -1.3576  -28.8542 O   0  0  0  0  0  0  0  0  0  0  0  0
    4.0975   -4.9894  -30.8401 C   0  0  0  0  0  0  0  0  0  0  0  0
    4.8810   -6.0600  -28.3475 H   0  0  0  0  0  0  0  0  0  0  0  0
    4.2812   -7.4745  -28.7167 H   0  0  0  0  0  0  0  0  0  0  0  0
    5.3385   -6.7817  -29.6720 H   0  0  0  0  0  0  0  0  0  0  0  0
    2.9813   -6.6384  -30.3334 H   0  0  0  0  0  0  0  0  0  0  0  0
    2.9650   -5.2185  -27.9699 H   0  0  0  0  0  0  0  0  0  0  0  0
    0.5376   -5.8246  -28.9576 H   0  0  0  0  0  0  0  0  0  0  0  0
   -1.4002  -10.3954  -29.2637 H   0  0  0  0  0  0  0  0  0  0  0  0
   -0.4338  -11.1240  -27.2141 H   0  0  0  0  0  0  0  0  0  0  0  0
    2.5252   -8.1747  -24.9660 H   0  0  0  0  0  0  0  0  0  0  0  0
    1.9548   -3.9282  -30.2720 H   0  0  0  0  0  0  0  0  0  0  0  0
    1.3282   -3.6846  -28.8625 H   0  0  0  0  0  0  0  0  0  0  0  0
    4.0084   -3.3210  -28.8118 H   0  0  0  0  0  0  0  0  0  0  0  0
    2.6863   -0.5714  -26.5163 H   0  0  0  0  0  0  0  0  0  0  0  0
    4.2839   -0.4100  -26.2527 H   0  0  0  0  0  0  0  0  0  0  0  0
    2.6374    1.6155  -27.0130 H   0  0  0  0  0  0  0  0  0  0  0  0
    4.2528    1.7296  -27.0741 H   0  0  0  0  0  0  0  0  0  0  0  0
    4.0748    1.1803  -29.2780 H   0  0  0  0  0  0  0  0  0  0  0  0
    2.5068    0.7858  -29.0929 H   0  0  0  0  0  0  0  0  0  0  0  0
    5.7516   -0.1039  -28.3358 H   0  0  0  0  0  0  0  0  0  0  0  0
    5.5227   -1.6115  -27.9087 H   0  0  0  0  0  0  0  0  0  0  0  0
    5.3568   -1.1850  -29.4247 H   0  0  0  0  0  0  0  0  0  0  0  0
    4.7222   -5.4783  -31.3728 H   0  0  0  0  0  0  0  0  0  0  0  0
    4.5806   -4.2828  -30.3781 H   0  0  0  0  0  0  0  0  0  0  0  0
    3.4293   -4.6063  -31.4309 H   0  0  0  0  0  0  0  0  0  0  0  0
  1  2  1  0  0  0  0
  1 24  1  0  0  0  0
  1 25  1  0  0  0  0
  1 26  1  0  0  0  0
  2  3  1  0  0  0  0
  2 23  1  0  0  0  0
  2 27  1  0  0  0  0
  3  4  1  0  0  0  0
  3 28  1  0  0  0  0
  4 29  1  0  0  0  0
  4  5  1  0  0  0  0
  5  6  4  0  0  0  0
  5 13  4  0  0  0  0
  6  7  4  0  0  0  0
  7  8  4  0  0  0  0
  8  9  4  0  0  0  0
  8 30  1  0  0  0  0
  9 31  1  0  0  0  0
  6 10  4  0  0  0  0
  9 10  4  0  0  0  0
 10 11  4  0  0  0  0
 11 12  4  0  0  0  0
 12 13  4  0  0  0  0
 12 32  1  0  0  0  0
  3 14  1  0  0  0  0
 14 15  1  0  0  0  0
 14 33  1  0  0  0  0
 14 34  1  0  0  0  0
 15 35  1  0  0  0  0
 15 16  1  0  0  0  0
 16 17  1  0  0  0  0
 16 22  2  0  0  0  0
 17 20  1  0  0  0  0
 17 21  1  0  0  0  0
 17 18  1  0  0  0  0
 18 19  1  0  0  0  0
 18 36  1  0  0  0  0
 18 37  1  0  0  0  0
 19 38  1  0  0  0  0
 19 39  1  0  0  0  0
 19 20  1  0  0  0  0
 20 40  1  0  0  0  0
 20 41  1  0  0  0  0
 21 42  1  0  0  0  0
 21 43  1  0  0  0  0
 21 44  1  0  0  0  0
 23 45  1  0  0  0  0
 23 46  1  0  0  0  0
 23 47  1  0  0  0  0
M  END
$$$$
