7FRC
  PyMOL2.5          3D                             0

 53 55  0  0  0  0  0  0  0  0999 V2000
  -51.4446    3.2197   34.3033 C   0  0  0  0  0  0  0  0  0  0  0  0
  -52.8515    3.8200   34.3359 C   0  0  0  0  0  0  0  0  0  0  0  0
  -53.9453    2.7516   34.3454 C   0  0  0  0  0  0  0  0  0  0  0  0
  -55.2954    3.3970   34.0290 C   0  0  0  0  0  0  0  0  0  0  0  0
  -56.3316    2.3805   33.9795 N   0  0  0  0  0  0  0  0  0  0  0  0
  -57.2302    2.1038   35.0817 C   0  0  0  0  0  0  0  0  0  0  0  0
  -57.1424    2.8786   36.3952 C   0  0  0  0  0  0  0  0  0  0  0  0
  -58.4612    2.8431   37.1612 C   0  0  0  0  0  0  0  0  0  0  0  0
  -59.2778    4.1327   37.0604 C   0  0  0  0  0  0  0  0  0  0  0  0
  -58.6734    5.2205   37.9134 C   0  0  0  0  0  0  0  0  0  0  0  0
  -59.1567    6.6104   37.4324 C   0  0  0  0  0  0  0  0  0  0  0  0
  -60.4905    6.5770   36.7582 C   0  0  0  0  0  0  0  0  0  0  0  0
  -60.4780    5.6763   35.5432 C   0  0  0  0  0  0  0  0  0  0  0  0
  -59.3627    4.6455   35.6340 C   0  0  0  0  0  0  0  0  0  0  0  0
  -58.0425    1.2535   34.9471 O   0  0  0  0  0  0  0  0  0  0  0  0
  -53.9974    2.1543   35.6696 N   0  0  0  0  0  0  0  0  0  0  0  0
  -54.0821    0.7166   35.8578 C   0  0  0  0  0  0  0  0  0  0  0  0
  -54.2240   -0.0789   34.8067 N   0  0  0  0  0  0  0  0  0  0  0  0
  -54.2999   -1.3977   34.9562 C   0  0  0  0  0  0  0  0  0  0  0  0
  -54.2345   -1.9768   36.1402 N   0  0  0  0  0  0  0  0  0  0  0  0
  -54.0896   -1.2363   37.2626 C   0  0  0  0  0  0  0  0  0  0  0  0
  -54.0106    0.1400   37.1537 C   0  0  0  0  0  0  0  0  0  0  0  0
  -53.8593    0.6184   38.4995 C   0  0  0  0  0  0  0  0  0  0  0  0
  -53.8566   -0.4220   39.3149 N   0  0  0  0  0  0  0  0  0  0  0  0
  -53.9947   -1.5330   38.5746 N   0  0  0  0  0  0  0  0  0  0  0  0
  -51.3483    2.6600   33.5167 H   0  0  0  0  0  0  0  0  0  0  0  0
  -51.3004    2.6839   35.0994 H   0  0  0  0  0  0  0  0  0  0  0  0
  -50.7872    3.9328   34.2723 H   0  0  0  0  0  0  0  0  0  0  0  0
  -52.9419    4.3638   35.1351 H   0  0  0  0  0  0  0  0  0  0  0  0
  -52.9703    4.3855   33.5575 H   0  0  0  0  0  0  0  0  0  0  0  0
  -53.7417    2.0779   33.6744 H   0  0  0  0  0  0  0  0  0  0  0  0
  -55.5031    4.0686   34.6961 H   0  0  0  0  0  0  0  0  0  0  0  0
  -55.2517    3.8254   33.1600 H   0  0  0  0  0  0  0  0  0  0  0  0
  -56.4229    1.9181   33.2706 H   0  0  0  0  0  0  0  0  0  0  0  0
  -56.4532    2.4826   36.9488 H   0  0  0  0  0  0  0  0  0  0  0  0
  -56.9090    3.7991   36.2109 H   0  0  0  0  0  0  0  0  0  0  0  0
  -58.9982    2.1145   36.8225 H   0  0  0  0  0  0  0  0  0  0  0  0
  -58.2733    2.6722   38.0901 H   0  0  0  0  0  0  0  0  0  0  0  0
  -60.1700    3.9793   37.3947 H   0  0  0  0  0  0  0  0  0  0  0  0
  -57.6864    5.1618   37.8708 H   0  0  0  0  0  0  0  0  0  0  0  0
  -58.9529    5.0812   38.8449 H   0  0  0  0  0  0  0  0  0  0  0  0
  -59.3534    7.1830   38.1879 H   0  0  0  0  0  0  0  0  0  0  0  0
  -58.4648    7.0558   36.8936 H   0  0  0  0  0  0  0  0  0  0  0  0
  -60.7028    7.4818   36.5101 H   0  0  0  0  0  0  0  0  0  0  0  0
  -61.1225    6.2571   37.4160 H   0  0  0  0  0  0  0  0  0  0  0  0
  -61.3266    5.2205   35.5090 H   0  0  0  0  0  0  0  0  0  0  0  0
  -60.3489    6.2214   34.7634 H   0  0  0  0  0  0  0  0  0  0  0  0
  -59.5576    3.9074   35.0553 H   0  0  0  0  0  0  0  0  0  0  0  0
  -58.5176    5.0612   35.3816 H   0  0  0  0  0  0  0  0  0  0  0  0
  -53.9725    2.6617   36.3550 H   0  0  0  0  0  0  0  0  0  0  0  0
  -54.3991   -1.9238   34.2036 H   0  0  0  0  0  0  0  0  0  0  0  0
  -53.7776    1.5042   38.7572 H   0  0  0  0  0  0  0  0  0  0  0  0
  -54.0235   -2.3302   38.8909 H   0  0  0  0  0  0  0  0  0  0  0  0
  1  2  1  0  0  0  0
  1 26  1  0  0  0  0
  1 27  1  0  0  0  0
  1 28  1  0  0  0  0
  2  3  1  0  0  0  0
  2 29  1  0  0  0  0
  2 30  1  0  0  0  0
  3  4  1  0  0  0  0
  3 16  1  0  0  0  0
  3 31  1  0  0  0  0
  4  5  1  0  0  0  0
  4 32  1  0  0  0  0
  4 33  1  0  0  0  0
  5 34  1  0  0  0  0
  5  6  1  0  0  0  0
  6  7  1  0  0  0  0
  6 15  2  0  0  0  0
  7  8  1  0  0  0  0
  7 35  1  0  0  0  0
  7 36  1  0  0  0  0
  8  9  1  0  0  0  0
  8 37  1  0  0  0  0
  8 38  1  0  0  0  0
  9 39  1  0  0  0  0
  9 10  1  0  0  0  0
 10 40  1  0  0  0  0
 10 41  1  0  0  0  0
 10 11  1  0  0  0  0
 11 42  1  0  0  0  0
 11 43  1  0  0  0  0
 11 12  1  0  0  0  0
 12 44  1  0  0  0  0
 12 45  1  0  0  0  0
 12 13  1  0  0  0  0
 13 46  1  0  0  0  0
 13 47  1  0  0  0  0
  9 14  1  0  0  0  0
 13 14  1  0  0  0  0
 14 48  1  0  0  0  0
 14 49  1  0  0  0  0
 16 50  1  0  0  0  0
 16 17  1  0  0  0  0
 17 18  4  0  0  0  0
 17 22  4  0  0  0  0
 18 19  4  0  0  0  0
 19 20  4  0  0  0  0
 19 51  1  0  0  0  0
 20 21  4  0  0  0  0
 21 22  4  0  0  0  0
 21 25  4  0  0  0  0
 22 23  4  0  0  0  0
 23 24  4  0  0  0  0
 23 52  1  0  0  0  0
 24 25  4  0  0  0  0
 25 53  1  0  0  0  0
M  END
$$$$
