7FRD
  PyMOL2.5          3D                             0

 47 49  0  0  0  0  0  0  0  0999 V2000
  -31.9798  -18.4320   15.9373 O   0  0  0  0  0  0  0  0  0  0  0  0
  -32.5272  -18.0092   14.9690 C   0  0  0  0  0  0  0  0  0  0  0  0
  -31.7473  -17.9458   13.6610 C   0  0  0  0  0  0  0  0  0  0  0  0
  -32.1293  -16.8096   12.7357 C   0  0  0  0  0  0  0  0  0  0  0  0
  -31.2640  -15.6150   13.0562 C   0  0  0  0  0  0  0  0  0  0  0  0
  -31.6267  -14.7449   14.0629 C   0  0  0  0  0  0  0  0  0  0  0  0
  -30.8220  -13.6616   14.3434 C   0  0  0  0  0  0  0  0  0  0  0  0
  -29.6617  -13.4646   13.6240 C   0  0  0  0  0  0  0  0  0  0  0  0
  -29.3003  -14.3388   12.6190 C   0  0  0  0  0  0  0  0  0  0  0  0
  -30.1027  -15.4234   12.3370 C   0  0  0  0  0  0  0  0  0  0  0  0
  -33.9005  -17.5413   15.0227 N   0  0  0  0  0  0  0  0  0  0  0  0
  -34.6474  -17.6620   16.2620 C   0  0  0  0  0  0  0  0  0  0  0  0
  -34.9868  -16.3264   16.9111 C   0  0  0  0  0  0  0  0  0  0  0  0
  -33.8116  -15.6479   17.6002 C   0  0  0  0  0  0  0  0  0  0  0  0
  -35.9565  -18.4050   15.9388 C   0  0  0  0  0  0  0  0  0  0  0  0
  -35.7081  -19.5195   15.0498 N   0  0  0  0  0  0  0  0  0  0  0  0
  -35.3006  -20.7958   15.5787 C   0  0  0  0  0  0  0  0  0  0  0  0
  -35.2099  -21.9379   14.7415 C   0  0  0  0  0  0  0  0  0  0  0  0
  -35.4235  -22.1616   13.4299 N   0  0  0  0  0  0  0  0  0  0  0  0
  -35.1821  -23.4471   13.1952 C   0  0  0  0  0  0  0  0  0  0  0  0
  -34.8372  -24.0527   14.3371 N   0  0  0  0  0  0  0  0  0  0  0  0
  -34.8445  -23.1189   15.3112 C   0  0  0  0  0  0  0  0  0  0  0  0
  -34.5754  -23.1747   16.6324 N   0  0  0  0  0  0  0  0  0  0  0  0
  -34.6816  -22.0893   17.3616 C   0  0  0  0  0  0  0  0  0  0  0  0
  -35.0378  -20.9208   16.8600 N   0  0  0  0  0  0  0  0  0  0  0  0
  -30.8017  -17.8567   13.8694 H   0  0  0  0  0  0  0  0  0  0  0  0
  -31.8714  -18.7749   13.1941 H   0  0  0  0  0  0  0  0  0  0  0  0
  -33.0496  -16.5740   12.8505 H   0  0  0  0  0  0  0  0  0  0  0  0
  -31.9591  -17.0735   11.8180 H   0  0  0  0  0  0  0  0  0  0  0  0
  -32.4082  -14.8863   14.5433 H   0  0  0  0  0  0  0  0  0  0  0  0
  -31.0569  -13.0709   15.0142 H   0  0  0  0  0  0  0  0  0  0  0  0
  -29.1233  -12.7377   13.8141 H   0  0  0  0  0  0  0  0  0  0  0  0
  -28.5179  -14.1953   12.1453 H   0  0  0  0  0  0  0  0  0  0  0  0
  -29.8670  -16.0184   11.6659 H   0  0  0  0  0  0  0  0  0  0  0  0
  -34.2805  -17.2454   14.2987 H   0  0  0  0  0  0  0  0  0  0  0  0
  -34.1285  -18.1978   16.8767 H   0  0  0  0  0  0  0  0  0  0  0  0
  -35.3314  -15.7347   16.2307 H   0  0  0  0  0  0  0  0  0  0  0  0
  -35.6791  -16.4870   17.5683 H   0  0  0  0  0  0  0  0  0  0  0  0
  -33.5175  -16.1945   18.3397 H   0  0  0  0  0  0  0  0  0  0  0  0
  -34.1048  -14.7817   17.9288 H   0  0  0  0  0  0  0  0  0  0  0  0
  -33.0950  -15.5314   16.9654 H   0  0  0  0  0  0  0  0  0  0  0  0
  -36.3637  -18.7545   16.7529 H   0  0  0  0  0  0  0  0  0  0  0  0
  -36.5949  -17.8151   15.5045 H   0  0  0  0  0  0  0  0  0  0  0  0
  -35.8409  -19.4361   14.1968 H   0  0  0  0  0  0  0  0  0  0  0  0
  -35.6568  -21.5760   12.8580 H   0  0  0  0  0  0  0  0  0  0  0  0
  -35.2249  -23.8378   12.3739 H   0  0  0  0  0  0  0  0  0  0  0  0
  -34.5006  -22.1431   18.2570 H   0  0  0  0  0  0  0  0  0  0  0  0
  1  2  2  0  0  0  0
  2  3  1  0  0  0  0
  2 11  1  0  0  0  0
  3  4  1  0  0  0  0
  3 26  1  0  0  0  0
  3 27  1  0  0  0  0
  4  5  1  0  0  0  0
  4 28  1  0  0  0  0
  4 29  1  0  0  0  0
  5  6  4  0  0  0  0
  6  7  4  0  0  0  0
  6 30  1  0  0  0  0
  7  8  4  0  0  0  0
  7 31  1  0  0  0  0
  8  9  4  0  0  0  0
  8 32  1  0  0  0  0
  9 33  1  0  0  0  0
  5 10  4  0  0  0  0
  9 10  4  0  0  0  0
 10 34  1  0  0  0  0
 11 35  1  0  0  0  0
 11 12  1  0  0  0  0
 12 36  1  0  0  0  0
 12 13  1  0  0  0  0
 13 37  1  0  0  0  0
 13 38  1  0  0  0  0
 13 14  1  0  0  0  0
 14 39  1  0  0  0  0
 14 40  1  0  0  0  0
 14 41  1  0  0  0  0
 12 15  1  0  0  0  0
 15 16  1  0  0  0  0
 15 42  1  0  0  0  0
 15 43  1  0  0  0  0
 16 44  1  0  0  0  0
 16 17  1  0  0  0  0
 17 25  4  0  0  0  0
 17 18  4  0  0  0  0
 18 19  4  0  0  0  0
 18 22  4  0  0  0  0
 19 45  1  0  0  0  0
 19 20  4  0  0  0  0
 20 21  4  0  0  0  0
 20 46  1  0  0  0  0
 21 22  4  0  0  0  0
 22 23  4  0  0  0  0
 23 24  4  0  0  0  0
 24 25  4  0  0  0  0
 24 47  1  0  0  0  0
M  END
$$$$
