7MAR
  PyMOL2.5          3D                             0

150156  0  0  0  0  0  0  0  0999 V2000
  -14.7315   19.2557  -37.6227 N   0  0  0  0  0  0  0  0  0  0  0  0
  -15.9844   18.9277  -38.3954 C   0  0  0  0  0  0  0  0  0  0  0  0
  -15.8728   18.4196  -39.6558 C   0  0  0  0  0  0  0  0  0  0  0  0
  -17.0178   18.1740  -40.3727 C   0  0  0  0  0  0  0  0  0  0  0  0
  -18.2586   18.4397  -39.8040 C   0  0  0  0  0  0  0  0  0  0  0  0
  -18.3659   18.9809  -38.5397 C   0  0  0  0  0  0  0  0  0  0  0  0
  -17.2131   19.2349  -37.8453 C   0  0  0  0  0  0  0  0  0  0  0  0
  -19.8116   18.0517  -40.7520 S   0  0  0  0  0  0  0  0  0  0  0  0
  -19.6911   18.5037  -42.1250 O   0  0  0  0  0  0  0  0  0  0  0  0
  -20.9639   18.8625  -40.2210 O   0  0  0  0  0  0  0  0  0  0  0  0
  -20.1037   16.3196  -40.5775 N   0  0  0  0  0  0  0  0  0  0  0  0
  -19.0573   15.4239  -41.0674 C   0  0  0  0  0  0  0  0  0  0  0  0
  -19.6377   14.2110  -41.8348 C   0  0  0  0  0  0  0  0  0  0  0  0
  -20.4795   14.6422  -43.0834 C   0  0  0  0  0  0  0  0  0  0  0  0
  -18.4469   13.3315  -42.2685 C   0  0  0  0  0  0  0  0  0  0  0  0
  -20.9568   15.8534  -39.3756 C   0  0  0  0  0  0  0  0  0  0  0  0
  -22.3919   15.3547  -39.8231 C   0  0  0  0  0  0  0  0  0  0  0  0
  -22.8863   14.6381  -38.7411 O   0  0  0  0  0  0  0  0  0  0  0  0
  -23.3100   16.5232  -40.1664 C   0  0  0  0  0  0  0  0  0  0  0  0
  -24.6061   16.0616  -40.6111 N   0  0  0  0  0  0  0  0  0  0  0  0
  -24.9798   15.8952  -42.0541 C   0  0  0  0  0  0  0  0  0  0  0  0
  -24.3538   16.2886  -43.0003 O   0  0  0  0  0  0  0  0  0  0  0  0
  -26.1576   15.2089  -42.2224 O   0  0  0  0  0  0  0  0  0  0  0  0
  -26.9319   15.4034  -43.3912 C   0  0  0  0  0  0  0  0  0  0  0  0
  -27.4188   13.8692  -43.7335 C   0  0  0  0  0  0  0  0  0  0  0  0
  -28.5290   13.6765  -43.0009 O   0  0  0  0  0  0  0  0  0  0  0  0
  -29.2003   15.0610  -42.6497 C   0  0  0  0  0  0  0  0  0  0  0  0
  -29.3255   15.2914  -41.3630 O   0  0  0  0  0  0  0  0  0  0  0  0
  -28.6396   16.7487  -41.0819 C   0  0  0  0  0  0  0  0  0  0  0  0
  -28.0220   17.1966  -42.1858 C   0  0  0  0  0  0  0  0  0  0  0  0
  -28.0966   16.0681  -43.2236 C   0  0  0  0  0  0  0  0  0  0  0  0
  -23.7104   17.3928  -38.9795 C   0  0  0  0  0  0  0  0  0  0  0  0
  -24.3464   19.5544  -40.1744 C   0  0  0  0  0  0  0  0  0  0  0  0
  -25.3206   20.4993  -40.5946 C   0  0  0  0  0  0  0  0  0  0  0  0
  -26.6892   20.3459  -40.2309 C   0  0  0  0  0  0  0  0  0  0  0  0
  -27.0797   19.2400  -39.4666 C   0  0  0  0  0  0  0  0  0  0  0  0
  -26.1066   18.2969  -39.0742 C   0  0  0  0  0  0  0  0  0  0  0  0
  -24.7433   18.4471  -39.4174 C   0  0  0  0  0  0  0  0  0  0  0  0
  -15.0378   18.2431  -40.0233 H   0  0  0  0  0  0  0  0  0  0  0  0
  -16.9640   17.8308  -41.2337 H   0  0  0  0  0  0  0  0  0  0  0  0
  -19.1981   19.1674  -38.1702 H   0  0  0  0  0  0  0  0  0  0  0  0
  -17.2574   19.6172  -36.9993 H   0  0  0  0  0  0  0  0  0  0  0  0
  -14.2289   18.6096  -37.3252 H   0  0  0  0  0  0  0  0  0  0  0  0
  -14.5008   20.0821  -37.4764 H   0  0  0  0  0  0  0  0  0  0  0  0
  -20.2252   13.7411  -41.2723 H   0  0  0  0  0  0  0  0  0  0  0  0
  -22.3458   14.8301  -40.6001 H   0  0  0  0  0  0  0  0  0  0  0  0
  -22.2835   14.1855  -38.4025 H   0  0  0  0  0  0  0  0  0  0  0  0
  -22.8034   16.9950  -40.8004 H   0  0  0  0  0  0  0  0  0  0  0  0
  -25.2011   15.8686  -40.0087 H   0  0  0  0  0  0  0  0  0  0  0  0
  -26.4555   15.8838  -44.0423 H   0  0  0  0  0  0  0  0  0  0  0  0
  -30.0547   15.1688  -43.0257 H   0  0  0  0  0  0  0  0  0  0  0  0
  -28.3590   16.3881  -44.0665 H   0  0  0  0  0  0  0  0  0  0  0  0
  -23.4531   19.6709  -40.4001 H   0  0  0  0  0  0  0  0  0  0  0  0
  -25.0622   21.2258  -41.1125 H   0  0  0  0  0  0  0  0  0  0  0  0
  -27.3185   20.9746  -40.4986 H   0  0  0  0  0  0  0  0  0  0  0  0
  -27.9690   19.1292  -39.2216 H   0  0  0  0  0  0  0  0  0  0  0  0
  -26.3691   17.5571  -38.5765 H   0  0  0  0  0  0  0  0  0  0  0  0
  -18.5600   15.1106  -40.3349 H   0  0  0  0  0  0  0  0  0  0  0  0
  -18.4926   15.9060  -41.6420 H   0  0  0  0  0  0  0  0  0  0  0  0
  -21.3776   14.3985  -42.9566 H   0  0  0  0  0  0  0  0  0  0  0  0
  -20.4208   15.5729  -43.1959 H   0  0  0  0  0  0  0  0  0  0  0  0
  -20.1455   14.2143  -43.8494 H   0  0  0  0  0  0  0  0  0  0  0  0
  -18.1537   12.8202  -41.5380 H   0  0  0  0  0  0  0  0  0  0  0  0
  -18.7165   12.7607  -42.9623 H   0  0  0  0  0  0  0  0  0  0  0  0
  -17.7463   13.8797  -42.5681 H   0  0  0  0  0  0  0  0  0  0  0  0
  -20.5123   15.1490  -38.9418 H   0  0  0  0  0  0  0  0  0  0  0  0
  -21.0580   16.5702  -38.7771 H   0  0  0  0  0  0  0  0  0  0  0  0
  -26.7545   13.2549  -43.4833 H   0  0  0  0  0  0  0  0  0  0  0  0
  -27.6161   13.7877  -44.6480 H   0  0  0  0  0  0  0  0  0  0  0  0
  -28.0082   16.6600  -40.3925 H   0  0  0  0  0  0  0  0  0  0  0  0
  -29.3098   17.3589  -40.8378 H   0  0  0  0  0  0  0  0  0  0  0  0
  -28.4633   17.9578  -42.5116 H   0  0  0  0  0  0  0  0  0  0  0  0
  -27.1244   17.3911  -41.9922 H   0  0  0  0  0  0  0  0  0  0  0  0
  -24.0817   16.8524  -38.3076 H   0  0  0  0  0  0  0  0  0  0  0  0
  -22.9499   17.8243  -38.6375 H   0  0  0  0  0  0  0  0  0  0  0  0
  -47.2057  -23.1888  -29.0802 N   0  0  0  0  0  0  0  0  0  0  0  0
  -46.4205  -24.3276  -29.5616 C   0  0  0  0  0  0  0  0  0  0  0  0
  -46.9820  -25.5905  -29.6720 C   0  0  0  0  0  0  0  0  0  0  0  0
  -46.1964  -26.6132  -30.0975 C   0  0  0  0  0  0  0  0  0  0  0  0
  -44.8556  -26.3952  -30.4123 C   0  0  0  0  0  0  0  0  0  0  0  0
  -44.3163  -25.1577  -30.3660 C   0  0  0  0  0  0  0  0  0  0  0  0
  -45.1063  -24.1149  -29.8786 C   0  0  0  0  0  0  0  0  0  0  0  0
  -43.7953  -27.7618  -31.0833 S   0  0  0  0  0  0  0  0  0  0  0  0
  -44.1134  -28.9579  -30.3284 O   0  0  0  0  0  0  0  0  0  0  0  0
  -42.3773  -27.4827  -30.8607 O   0  0  0  0  0  0  0  0  0  0  0  0
  -44.1908  -27.9338  -32.7899 N   0  0  0  0  0  0  0  0  0  0  0  0
  -45.5895  -28.2507  -33.0615 C   0  0  0  0  0  0  0  0  0  0  0  0
  -45.7442  -29.3049  -34.1936 C   0  0  0  0  0  0  0  0  0  0  0  0
  -47.2830  -29.4183  -34.4578 C   0  0  0  0  0  0  0  0  0  0  0  0
  -45.0960  -30.6143  -33.7469 C   0  0  0  0  0  0  0  0  0  0  0  0
  -43.4988  -26.9295  -33.7499 C   0  0  0  0  0  0  0  0  0  0  0  0
  -42.4628  -27.6439  -34.6322 C   0  0  0  0  0  0  0  0  0  0  0  0
  -42.0287  -26.7604  -35.6045 O   0  0  0  0  0  0  0  0  0  0  0  0
  -41.2325  -28.1183  -33.8421 C   0  0  0  0  0  0  0  0  0  0  0  0
  -40.4561  -28.8892  -34.8045 N   0  0  0  0  0  0  0  0  0  0  0  0
  -40.3550  -30.3582  -34.7831 C   0  0  0  0  0  0  0  0  0  0  0  0
  -40.8045  -30.9983  -33.8849 O   0  0  0  0  0  0  0  0  0  0  0  0
  -39.6046  -30.8893  -35.8441 O   0  0  0  0  0  0  0  0  0  0  0  0
  -39.0254  -32.1629  -35.6484 C   0  0  0  0  0  0  0  0  0  0  0  0
  -39.2795  -32.8376  -37.1481 C   0  0  0  0  0  0  0  0  0  0  0  0
  -38.2105  -32.3035  -37.8726 O   0  0  0  0  0  0  0  0  0  0  0  0
  -36.9978  -32.1454  -36.8977 C   0  0  0  0  0  0  0  0  0  0  0  0
  -36.4298  -30.9570  -37.0676 O   0  0  0  0  0  0  0  0  0  0  0  0
  -36.7205  -30.1572  -35.6759 C   0  0  0  0  0  0  0  0  0  0  0  0
  -37.0953  -31.0720  -34.7206 C   0  0  0  0  0  0  0  0  0  0  0  0
  -37.7139  -32.2317  -35.5062 C   0  0  0  0  0  0  0  0  0  0  0  0
  -40.3274  -26.9758  -33.3771 C   0  0  0  0  0  0  0  0  0  0  0  0
  -39.0852  -28.1588  -31.5068 C   0  0  0  0  0  0  0  0  0  0  0  0
  -37.8814  -28.6876  -30.9584 C   0  0  0  0  0  0  0  0  0  0  0  0
  -36.6521  -28.5250  -31.6481 C   0  0  0  0  0  0  0  0  0  0  0  0
  -36.6009  -27.8210  -32.8402 C   0  0  0  0  0  0  0  0  0  0  0  0
  -37.7962  -27.3190  -33.3944 C   0  0  0  0  0  0  0  0  0  0  0  0
  -39.0478  -27.5098  -32.7472 C   0  0  0  0  0  0  0  0  0  0  0  0
  -47.8754  -25.7340  -29.4608 H   0  0  0  0  0  0  0  0  0  0  0  0
  -46.5557  -27.4668  -30.1791 H   0  0  0  0  0  0  0  0  0  0  0  0
  -43.4446  -25.0054  -30.6504 H   0  0  0  0  0  0  0  0  0  0  0  0
  -44.7374  -23.2696  -29.7678 H   0  0  0  0  0  0  0  0  0  0  0  0
  -48.0709  -23.1725  -29.2059 H   0  0  0  0  0  0  0  0  0  0  0  0
  -46.8272  -22.5437  -28.6345 H   0  0  0  0  0  0  0  0  0  0  0  0
  -45.3118  -29.0678  -34.9932 H   0  0  0  0  0  0  0  0  0  0  0  0
  -42.8806  -28.3996  -35.0001 H   0  0  0  0  0  0  0  0  0  0  0  0
  -42.6809  -26.5307  -36.0862 H   0  0  0  0  0  0  0  0  0  0  0  0
  -41.5167  -28.5807  -33.0748 H   0  0  0  0  0  0  0  0  0  0  0  0
  -40.0291  -28.4587  -35.4252 H   0  0  0  0  0  0  0  0  0  0  0  0
  -39.3601  -32.5731  -34.8734 H   0  0  0  0  0  0  0  0  0  0  0  0
  -36.3210  -32.7939  -36.9581 H   0  0  0  0  0  0  0  0  0  0  0  0
  -37.5521  -33.0671  -35.1083 H   0  0  0  0  0  0  0  0  0  0  0  0
  -39.8877  -28.2432  -31.0455 H   0  0  0  0  0  0  0  0  0  0  0  0
  -37.9012  -29.1398  -30.1475 H   0  0  0  0  0  0  0  0  0  0  0  0
  -35.8746  -28.8943  -31.2978 H   0  0  0  0  0  0  0  0  0  0  0  0
  -35.7881  -27.6817  -33.2681 H   0  0  0  0  0  0  0  0  0  0  0  0
  -37.7651  -26.8535  -34.1985 H   0  0  0  0  0  0  0  0  0  0  0  0
  -46.0339  -27.4638  -33.3152 H   0  0  0  0  0  0  0  0  0  0  0  0
  -45.9795  -28.5877  -32.2769 H   0  0  0  0  0  0  0  0  0  0  0  0
  -47.7086  -28.6286  -34.1792 H   0  0  0  0  0  0  0  0  0  0  0  0
  -47.4354  -29.5478  -35.3746 H   0  0  0  0  0  0  0  0  0  0  0  0
  -47.6314  -30.1461  -33.9766 H   0  0  0  0  0  0  0  0  0  0  0  0
  -45.7277  -31.3075  -33.7908 H   0  0  0  0  0  0  0  0  0  0  0  0
  -44.3729  -30.8138  -34.3116 H   0  0  0  0  0  0  0  0  0  0  0  0
  -44.7882  -30.5260  -32.8637 H   0  0  0  0  0  0  0  0  0  0  0  0
  -43.0679  -26.2648  -33.2446 H   0  0  0  0  0  0  0  0  0  0  0  0
  -44.1470  -26.5284  -34.2982 H   0  0  0  0  0  0  0  0  0  0  0  0
  -40.1022  -32.5646  -37.5081 H   0  0  0  0  0  0  0  0  0  0  0  0
  -39.2297  -33.7742  -37.1122 H   0  0  0  0  0  0  0  0  0  0  0  0
  -37.4158  -29.5402  -35.8097 H   0  0  0  0  0  0  0  0  0  0  0  0
  -35.9386  -29.7174  -35.3990 H   0  0  0  0  0  0  0  0  0  0  0  0
  -36.3445  -31.3675  -34.2406 H   0  0  0  0  0  0  0  0  0  0  0  0
  -37.7309  -30.6954  -34.1409 H   0  0  0  0  0  0  0  0  0  0  0  0
  -40.1075  -26.4383  -34.1156 H   0  0  0  0  0  0  0  0  0  0  0  0
  -40.7875  -26.4542  -32.7475 H   0  0  0  0  0  0  0  0  0  0  0  0
  1  2  1  0  0  0  0
  1 43  1  0  0  0  0
  1 44  1  0  0  0  0
  2  3  4  0  0  0  0
  2  7  4  0  0  0  0
  3  4  4  0  0  0  0
  3 39  1  0  0  0  0
  4  5  4  0  0  0  0
  4 40  1  0  0  0  0
  5  6  4  0  0  0  0
  5  8  1  0  0  0  0
  6  7  4  0  0  0  0
  6 41  1  0  0  0  0
  7 42  1  0  0  0  0
  8  9  2  0  0  0  0
  8 10  2  0  0  0  0
  8 11  1  0  0  0  0
 11 12  1  0  0  0  0
 11 16  1  0  0  0  0
 12 13  1  0  0  0  0
 12 58  1  0  0  0  0
 12 59  1  0  0  0  0
 13 14  1  0  0  0  0
 13 15  1  0  0  0  0
 13 45  1  0  0  0  0
 14 60  1  0  0  0  0
 14 61  1  0  0  0  0
 14 62  1  0  0  0  0
 15 63  1  0  0  0  0
 15 64  1  0  0  0  0
 15 65  1  0  0  0  0
 16 17  1  0  0  0  0
 16 66  1  0  0  0  0
 16 67  1  0  0  0  0
 17 18  1  0  0  0  0
 17 19  1  0  0  0  0
 17 46  1  0  0  0  0
 18 47  1  0  0  0  0
 19 20  1  0  0  0  0
 19 32  1  0  0  0  0
 19 48  1  0  0  0  0
 20 21  1  0  0  0  0
 20 49  1  0  0  0  0
 21 22  2  0  0  0  0
 21 23  1  0  0  0  0
 23 24  1  0  0  0  0
 24 25  1  0  0  0  0
 24 31  1  0  0  0  0
 24 50  1  0  0  0  0
 25 26  1  0  0  0  0
 25 68  1  0  0  0  0
 25 69  1  0  0  0  0
 26 27  1  0  0  0  0
 27 28  1  0  0  0  0
 27 31  1  0  0  0  0
 27 51  1  0  0  0  0
 28 29  1  0  0  0  0
 29 30  1  0  0  0  0
 29 70  1  0  0  0  0
 29 71  1  0  0  0  0
 30 31  1  0  0  0  0
 30 72  1  0  0  0  0
 30 73  1  0  0  0  0
 31 52  1  0  0  0  0
 32 38  1  0  0  0  0
 32 74  1  0  0  0  0
 32 75  1  0  0  0  0
 33 34  4  0  0  0  0
 33 38  4  0  0  0  0
 33 53  1  0  0  0  0
 34 35  4  0  0  0  0
 34 54  1  0  0  0  0
 35 36  4  0  0  0  0
 35 55  1  0  0  0  0
 36 37  4  0  0  0  0
 36 56  1  0  0  0  0
 37 38  4  0  0  0  0
 37 57  1  0  0  0  0
 76 77  1  0  0  0  0
 76118  1  0  0  0  0
 76119  1  0  0  0  0
 77 78  4  0  0  0  0
 77 82  4  0  0  0  0
 78 79  4  0  0  0  0
 78114  1  0  0  0  0
 79 80  4  0  0  0  0
 79115  1  0  0  0  0
 80 81  4  0  0  0  0
 80 83  1  0  0  0  0
 81 82  4  0  0  0  0
 81116  1  0  0  0  0
 82117  1  0  0  0  0
 83 84  2  0  0  0  0
 83 85  2  0  0  0  0
 83 86  1  0  0  0  0
 86 87  1  0  0  0  0
 86 91  1  0  0  0  0
 87 88  1  0  0  0  0
 87133  1  0  0  0  0
 87134  1  0  0  0  0
 88 89  1  0  0  0  0
 88 90  1  0  0  0  0
 88120  1  0  0  0  0
 89135  1  0  0  0  0
 89136  1  0  0  0  0
 89137  1  0  0  0  0
 90138  1  0  0  0  0
 90139  1  0  0  0  0
 90140  1  0  0  0  0
 91 92  1  0  0  0  0
 91141  1  0  0  0  0
 91142  1  0  0  0  0
 92 93  1  0  0  0  0
 92 94  1  0  0  0  0
 92121  1  0  0  0  0
 93122  1  0  0  0  0
 94 95  1  0  0  0  0
 94107  1  0  0  0  0
 94123  1  0  0  0  0
 95 96  1  0  0  0  0
 95124  1  0  0  0  0
 96 97  2  0  0  0  0
 96 98  1  0  0  0  0
 98 99  1  0  0  0  0
 99100  1  0  0  0  0
 99106  1  0  0  0  0
 99125  1  0  0  0  0
100101  1  0  0  0  0
100143  1  0  0  0  0
100144  1  0  0  0  0
101102  1  0  0  0  0
102103  1  0  0  0  0
102106  1  0  0  0  0
102126  1  0  0  0  0
103104  1  0  0  0  0
104105  1  0  0  0  0
104145  1  0  0  0  0
104146  1  0  0  0  0
105106  1  0  0  0  0
105147  1  0  0  0  0
105148  1  0  0  0  0
106127  1  0  0  0  0
107113  1  0  0  0  0
107149  1  0  0  0  0
107150  1  0  0  0  0
108109  4  0  0  0  0
108113  4  0  0  0  0
108128  1  0  0  0  0
109110  4  0  0  0  0
109129  1  0  0  0  0
110111  4  0  0  0  0
110130  1  0  0  0  0
111112  4  0  0  0  0
111131  1  0  0  0  0
112113  4  0  0  0  0
112132  1  0  0  0  0
M  END
$$$$
