7MAS
  PyMOL2.5          3D                             0

150156  0  0  0  0  0  0  0  0999 V2000
  -37.0943   -3.0169  -34.1088 N   0  0  0  0  0  0  0  0  0  0  0  0
  -36.9038   -2.5155  -35.4986 C   0  0  0  0  0  0  0  0  0  0  0  0
  -37.8993   -2.6848  -36.3942 C   0  0  0  0  0  0  0  0  0  0  0  0
  -37.7693   -2.2345  -37.6793 C   0  0  0  0  0  0  0  0  0  0  0  0
  -36.5950   -1.5684  -38.0191 C   0  0  0  0  0  0  0  0  0  0  0  0
  -35.6249   -1.3404  -37.1080 C   0  0  0  0  0  0  0  0  0  0  0  0
  -35.7474   -1.8464  -35.8312 C   0  0  0  0  0  0  0  0  0  0  0  0
  -36.3975   -0.9863  -39.7543 S   0  0  0  0  0  0  0  0  0  0  0  0
  -37.7037   -0.8337  -40.3490 O   0  0  0  0  0  0  0  0  0  0  0  0
  -35.7259    0.3084  -39.7675 O   0  0  0  0  0  0  0  0  0  0  0  0
  -35.5203   -2.2334  -40.6309 N   0  0  0  0  0  0  0  0  0  0  0  0
  -34.1750   -2.5762  -40.1957 C   0  0  0  0  0  0  0  0  0  0  0  0
  -33.1239   -2.5543  -41.3346 C   0  0  0  0  0  0  0  0  0  0  0  0
  -32.9509   -1.1550  -42.0034 C   0  0  0  0  0  0  0  0  0  0  0  0
  -31.7732   -2.9822  -40.6879 C   0  0  0  0  0  0  0  0  0  0  0  0
  -36.3874   -3.3377  -41.2503 C   0  0  0  0  0  0  0  0  0  0  0  0
  -36.3644   -3.2135  -42.8006 C   0  0  0  0  0  0  0  0  0  0  0  0
  -36.7789   -4.4328  -43.3137 O   0  0  0  0  0  0  0  0  0  0  0  0
  -37.3502   -2.1608  -43.2616 C   0  0  0  0  0  0  0  0  0  0  0  0
  -37.2190   -2.0778  -44.7472 N   0  0  0  0  0  0  0  0  0  0  0  0
  -36.4356   -1.0884  -45.4881 C   0  0  0  0  0  0  0  0  0  0  0  0
  -35.8434   -0.1735  -44.9769 O   0  0  0  0  0  0  0  0  0  0  0  0
  -36.4283   -1.3154  -46.8680 O   0  0  0  0  0  0  0  0  0  0  0  0
  -36.0537   -0.2260  -47.7084 C   0  0  0  0  0  0  0  0  0  0  0  0
  -35.0371   -0.8141  -48.8825 C   0  0  0  0  0  0  0  0  0  0  0  0
  -35.9466   -1.5628  -49.5581 O   0  0  0  0  0  0  0  0  0  0  0  0
  -37.2282   -0.6655  -49.6998 C   0  0  0  0  0  0  0  0  0  0  0  0
  -38.2506   -1.4034  -49.5844 O   0  0  0  0  0  0  0  0  0  0  0  0
  -39.0859   -0.9062  -48.2816 C   0  0  0  0  0  0  0  0  0  0  0  0
  -38.4563    0.1214  -47.7338 C   0  0  0  0  0  0  0  0  0  0  0  0
  -37.1045    0.2545  -48.4012 C   0  0  0  0  0  0  0  0  0  0  0  0
  -38.8178   -2.4447  -43.0299 C   0  0  0  0  0  0  0  0  0  0  0  0
  -39.6686   -0.0782  -43.1412 C   0  0  0  0  0  0  0  0  0  0  0  0
  -40.4394    0.9212  -43.7801 C   0  0  0  0  0  0  0  0  0  0  0  0
  -41.1983    0.6240  -44.9372 C   0  0  0  0  0  0  0  0  0  0  0  0
  -41.1906   -0.6488  -45.4663 C   0  0  0  0  0  0  0  0  0  0  0  0
  -40.4113   -1.6237  -44.8326 C   0  0  0  0  0  0  0  0  0  0  0  0
  -39.6492   -1.3474  -43.6825 C   0  0  0  0  0  0  0  0  0  0  0  0
  -38.6824   -3.1128  -36.1351 H   0  0  0  0  0  0  0  0  0  0  0  0
  -38.4429   -2.3691  -38.3050 H   0  0  0  0  0  0  0  0  0  0  0  0
  -34.8761   -0.8421  -37.3413 H   0  0  0  0  0  0  0  0  0  0  0  0
  -35.0647   -1.7386  -35.2097 H   0  0  0  0  0  0  0  0  0  0  0  0
  -36.4803   -3.5029  -33.7341 H   0  0  0  0  0  0  0  0  0  0  0  0
  -37.8205   -2.8241  -33.6726 H   0  0  0  0  0  0  0  0  0  0  0  0
  -33.4093   -3.1310  -42.0186 H   0  0  0  0  0  0  0  0  0  0  0  0
  -35.5031   -2.9773  -43.0912 H   0  0  0  0  0  0  0  0  0  0  0  0
  -37.5493   -4.5993  -43.0449 H   0  0  0  0  0  0  0  0  0  0  0  0
  -37.1376   -1.3936  -42.7638 H   0  0  0  0  0  0  0  0  0  0  0  0
  -37.6464   -2.6718  -45.2146 H   0  0  0  0  0  0  0  0  0  0  0  0
  -35.6722    0.4634  -47.1978 H   0  0  0  0  0  0  0  0  0  0  0  0
  -37.2983   -0.1452  -50.4783 H   0  0  0  0  0  0  0  0  0  0  0  0
  -36.9309    1.1573  -48.5933 H   0  0  0  0  0  0  0  0  0  0  0  0
  -39.1852    0.1157  -42.3726 H   0  0  0  0  0  0  0  0  0  0  0  0
  -40.4456    1.7836  -43.4349 H   0  0  0  0  0  0  0  0  0  0  0  0
  -41.7044    1.2895  -45.3430 H   0  0  0  0  0  0  0  0  0  0  0  0
  -41.6901   -0.8536  -46.2225 H   0  0  0  0  0  0  0  0  0  0  0  0
  -40.3964   -2.4833  -45.1840 H   0  0  0  0  0  0  0  0  0  0  0  0
  -33.9118   -1.9627  -39.5361 H   0  0  0  0  0  0  0  0  0  0  0  0
  -34.1951   -3.4396  -39.8260 H   0  0  0  0  0  0  0  0  0  0  0  0
  -33.2076   -1.2035  -42.9056 H   0  0  0  0  0  0  0  0  0  0  0  0
  -33.4888   -0.5257  -41.5597 H   0  0  0  0  0  0  0  0  0  0  0  0
  -32.0515   -0.8899  -41.9489 H   0  0  0  0  0  0  0  0  0  0  0  0
  -31.7672   -3.9133  -40.5617 H   0  0  0  0  0  0  0  0  0  0  0  0
  -31.0637   -2.7391  -41.2533 H   0  0  0  0  0  0  0  0  0  0  0  0
  -31.6732   -2.5539  -39.8581 H   0  0  0  0  0  0  0  0  0  0  0  0
  -37.2710   -3.2535  -40.9424 H   0  0  0  0  0  0  0  0  0  0  0  0
  -36.0513   -4.1782  -40.9994 H   0  0  0  0  0  0  0  0  0  0  0  0
  -34.3482   -1.3403  -48.5209 H   0  0  0  0  0  0  0  0  0  0  0  0
  -34.6815   -0.1282  -49.4165 H   0  0  0  0  0  0  0  0  0  0  0  0
  -39.1380   -1.6087  -47.6603 H   0  0  0  0  0  0  0  0  0  0  0  0
  -39.9458   -0.6385  -48.5485 H   0  0  0  0  0  0  0  0  0  0  0  0
  -38.9538    0.9045  -47.8733 H   0  0  0  0  0  0  0  0  0  0  0  0
  -38.3385   -0.0370  -46.8149 H   0  0  0  0  0  0  0  0  0  0  0  0
  -39.0425   -3.2763  -43.4039 H   0  0  0  0  0  0  0  0  0  0  0  0
  -38.9935   -2.4685  -42.1084 H   0  0  0  0  0  0  0  0  0  0  0  0
  -48.8921  -39.5834  -15.1030 N   0  0  0  0  0  0  0  0  0  0  0  0
  -50.3080  -39.7478  -15.3843 C   0  0  0  0  0  0  0  0  0  0  0  0
  -51.0981  -40.5360  -14.5942 C   0  0  0  0  0  0  0  0  0  0  0  0
  -52.4189  -40.6833  -14.8953 C   0  0  0  0  0  0  0  0  0  0  0  0
  -52.9753  -40.0232  -15.9712 C   0  0  0  0  0  0  0  0  0  0  0  0
  -52.2084  -39.2257  -16.7507 C   0  0  0  0  0  0  0  0  0  0  0  0
  -50.8618  -39.1035  -16.4666 C   0  0  0  0  0  0  0  0  0  0  0  0
  -54.7648  -40.1635  -16.3250 S   0  0  0  0  0  0  0  0  0  0  0  0
  -55.2547  -41.4808  -15.9959 O   0  0  0  0  0  0  0  0  0  0  0  0
  -55.0520  -39.7478  -17.7232 O   0  0  0  0  0  0  0  0  0  0  0  0
  -55.5751  -39.0357  -15.2680 N   0  0  0  0  0  0  0  0  0  0  0  0
  -55.4188  -39.2990  -13.8256 C   0  0  0  0  0  0  0  0  0  0  0  0
  -56.7063  -39.0494  -13.0577 C   0  0  0  0  0  0  0  0  0  0  0  0
  -57.8236  -40.0722  -13.4136 C   0  0  0  0  0  0  0  0  0  0  0  0
  -56.3728  -39.0877  -11.5333 C   0  0  0  0  0  0  0  0  0  0  0  0
  -55.6344  -37.5657  -15.7481 C   0  0  0  0  0  0  0  0  0  0  0  0
  -57.0866  -37.1079  -16.0834 C   0  0  0  0  0  0  0  0  0  0  0  0
  -57.1217  -35.7261  -16.2673 O   0  0  0  0  0  0  0  0  0  0  0  0
  -57.5851  -37.7781  -17.3560 C   0  0  0  0  0  0  0  0  0  0  0  0
  -59.0178  -37.4152  -17.4376 N   0  0  0  0  0  0  0  0  0  0  0  0
  -60.0965  -38.3567  -17.2265 C   0  0  0  0  0  0  0  0  0  0  0  0
  -59.9210  -39.5330  -16.9995 O   0  0  0  0  0  0  0  0  0  0  0  0
  -61.3342  -37.7311  -17.3174 O   0  0  0  0  0  0  0  0  0  0  0  0
  -62.4839  -38.5606  -17.5209 C   0  0  0  0  0  0  0  0  0  0  0  0
  -63.6909  -37.8900  -16.6001 C   0  0  0  0  0  0  0  0  0  0  0  0
  -63.9758  -36.8025  -17.3882 O   0  0  0  0  0  0  0  0  0  0  0  0
  -63.9083  -37.2816  -18.8883 C   0  0  0  0  0  0  0  0  0  0  0  0
  -63.2865  -36.3582  -19.5567 O   0  0  0  0  0  0  0  0  0  0  0  0
  -61.9639  -37.0738  -20.1401 C   0  0  0  0  0  0  0  0  0  0  0  0
  -61.9835  -38.3786  -19.8705 C   0  0  0  0  0  0  0  0  0  0  0  0
  -62.9885  -38.5686  -18.7534 C   0  0  0  0  0  0  0  0  0  0  0  0
  -56.9877  -37.2404  -18.6359 C   0  0  0  0  0  0  0  0  0  0  0  0
  -57.4371  -39.2228  -20.1153 C   0  0  0  0  0  0  0  0  0  0  0  0
  -58.0199  -39.7982  -21.2566 C   0  0  0  0  0  0  0  0  0  0  0  0
  -58.7988  -39.0210  -22.1270 C   0  0  0  0  0  0  0  0  0  0  0  0
  -58.9646  -37.6699  -21.8754 C   0  0  0  0  0  0  0  0  0  0  0  0
  -58.3620  -37.1049  -20.7514 C   0  0  0  0  0  0  0  0  0  0  0  0
  -57.6201  -37.8917  -19.8450 C   0  0  0  0  0  0  0  0  0  0  0  0
  -50.7368  -40.9684  -13.8545 H   0  0  0  0  0  0  0  0  0  0  0  0
  -52.9509  -41.2343  -14.3707 H   0  0  0  0  0  0  0  0  0  0  0  0
  -52.5820  -38.7670  -17.4668 H   0  0  0  0  0  0  0  0  0  0  0  0
  -50.3234  -38.5796  -17.0129 H   0  0  0  0  0  0  0  0  0  0  0  0
  -48.5945  -39.6908  -14.2947 H   0  0  0  0  0  0  0  0  0  0  0  0
  -48.3437  -39.3761  -15.7423 H   0  0  0  0  0  0  0  0  0  0  0  0
  -57.0464  -38.2083  -13.2999 H   0  0  0  0  0  0  0  0  0  0  0  0
  -57.6406  -37.3513  -15.3648 H   0  0  0  0  0  0  0  0  0  0  0  0
  -56.8328  -35.3485  -15.5848 H   0  0  0  0  0  0  0  0  0  0  0  0
  -57.3698  -38.6913  -17.2998 H   0  0  0  0  0  0  0  0  0  0  0  0
  -59.2215  -36.5919  -17.6233 H   0  0  0  0  0  0  0  0  0  0  0  0
  -62.2604  -39.4520  -17.3253 H   0  0  0  0  0  0  0  0  0  0  0  0
  -64.7137  -37.5025  -19.3179 H   0  0  0  0  0  0  0  0  0  0  0  0
  -63.4578  -39.3759  -18.8528 H   0  0  0  0  0  0  0  0  0  0  0  0
  -56.9267  -39.7463  -19.5429 H   0  0  0  0  0  0  0  0  0  0  0  0
  -57.8880  -40.7004  -21.4357 H   0  0  0  0  0  0  0  0  0  0  0  0
  -59.2018  -39.4113  -22.8674 H   0  0  0  0  0  0  0  0  0  0  0  0
  -59.4710  -37.1454  -22.4506 H   0  0  0  0  0  0  0  0  0  0  0  0
  -58.4506  -36.1934  -20.5964 H   0  0  0  0  0  0  0  0  0  0  0  0
  -54.7475  -38.7370  -13.4853 H   0  0  0  0  0  0  0  0  0  0  0  0
  -55.1612  -40.1942  -13.7065 H   0  0  0  0  0  0  0  0  0  0  0  0
  -57.4838  -40.7167  -14.0046 H   0  0  0  0  0  0  0  0  0  0  0  0
  -58.1232  -40.4946  -12.6304 H   0  0  0  0  0  0  0  0  0  0  0  0
  -58.5416  -39.6241  -13.8194 H   0  0  0  0  0  0  0  0  0  0  0  0
  -56.0227  -38.2579  -11.2688 H   0  0  0  0  0  0  0  0  0  0  0  0
  -57.1547  -39.2677  -11.0459 H   0  0  0  0  0  0  0  0  0  0  0  0
  -55.7394  -39.7613  -11.3683 H   0  0  0  0  0  0  0  0  0  0  0  0
  -55.2907  -37.0121  -15.0724 H   0  0  0  0  0  0  0  0  0  0  0  0
  -55.1049  -37.4781  -16.5191 H   0  0  0  0  0  0  0  0  0  0  0  0
  -63.3802  -37.6330  -15.7525 H   0  0  0  0  0  0  0  0  0  0  0  0
  -64.4290  -38.4650  -16.5208 H   0  0  0  0  0  0  0  0  0  0  0  0
  -61.2077  -36.6898  -19.7374 H   0  0  0  0  0  0  0  0  0  0  0  0
  -61.9385  -36.9532  -21.0709 H   0  0  0  0  0  0  0  0  0  0  0  0
  -62.2566  -38.8587  -20.6305 H   0  0  0  0  0  0  0  0  0  0  0  0
  -61.1339  -38.6604  -19.5876 H   0  0  0  0  0  0  0  0  0  0  0  0
  -57.1271  -36.3125  -18.6752 H   0  0  0  0  0  0  0  0  0  0  0  0
  -56.0638  -37.4096  -18.6399 H   0  0  0  0  0  0  0  0  0  0  0  0
  1  2  1  0  0  0  0
  1 43  1  0  0  0  0
  1 44  1  0  0  0  0
  2  3  4  0  0  0  0
  2  7  4  0  0  0  0
  3  4  4  0  0  0  0
  3 39  1  0  0  0  0
  4  5  4  0  0  0  0
  4 40  1  0  0  0  0
  5  6  4  0  0  0  0
  5  8  1  0  0  0  0
  6  7  4  0  0  0  0
  6 41  1  0  0  0  0
  7 42  1  0  0  0  0
  8  9  2  0  0  0  0
  8 10  2  0  0  0  0
  8 11  1  0  0  0  0
 11 12  1  0  0  0  0
 11 16  1  0  0  0  0
 12 13  1  0  0  0  0
 12 58  1  0  0  0  0
 12 59  1  0  0  0  0
 13 14  1  0  0  0  0
 13 15  1  0  0  0  0
 13 45  1  0  0  0  0
 14 60  1  0  0  0  0
 14 61  1  0  0  0  0
 14 62  1  0  0  0  0
 15 63  1  0  0  0  0
 15 64  1  0  0  0  0
 15 65  1  0  0  0  0
 16 17  1  0  0  0  0
 16 66  1  0  0  0  0
 16 67  1  0  0  0  0
 17 18  1  0  0  0  0
 17 19  1  0  0  0  0
 17 46  1  0  0  0  0
 18 47  1  0  0  0  0
 19 20  1  0  0  0  0
 19 32  1  0  0  0  0
 19 48  1  0  0  0  0
 20 21  1  0  0  0  0
 20 49  1  0  0  0  0
 21 22  2  0  0  0  0
 21 23  1  0  0  0  0
 23 24  1  0  0  0  0
 24 25  1  0  0  0  0
 24 31  1  0  0  0  0
 24 50  1  0  0  0  0
 25 26  1  0  0  0  0
 25 68  1  0  0  0  0
 25 69  1  0  0  0  0
 26 27  1  0  0  0  0
 27 28  1  0  0  0  0
 27 31  1  0  0  0  0
 27 51  1  0  0  0  0
 28 29  1  0  0  0  0
 29 30  1  0  0  0  0
 29 70  1  0  0  0  0
 29 71  1  0  0  0  0
 30 31  1  0  0  0  0
 30 72  1  0  0  0  0
 30 73  1  0  0  0  0
 31 52  1  0  0  0  0
 32 38  1  0  0  0  0
 32 74  1  0  0  0  0
 32 75  1  0  0  0  0
 33 34  4  0  0  0  0
 33 38  4  0  0  0  0
 33 53  1  0  0  0  0
 34 35  4  0  0  0  0
 34 54  1  0  0  0  0
 35 36  4  0  0  0  0
 35 55  1  0  0  0  0
 36 37  4  0  0  0  0
 36 56  1  0  0  0  0
 37 38  4  0  0  0  0
 37 57  1  0  0  0  0
 76 77  1  0  0  0  0
 76118  1  0  0  0  0
 76119  1  0  0  0  0
 77 78  4  0  0  0  0
 77 82  4  0  0  0  0
 78 79  4  0  0  0  0
 78114  1  0  0  0  0
 79 80  4  0  0  0  0
 79115  1  0  0  0  0
 80 81  4  0  0  0  0
 80 83  1  0  0  0  0
 81 82  4  0  0  0  0
 81116  1  0  0  0  0
 82117  1  0  0  0  0
 83 84  2  0  0  0  0
 83 85  2  0  0  0  0
 83 86  1  0  0  0  0
 86 87  1  0  0  0  0
 86 91  1  0  0  0  0
 87 88  1  0  0  0  0
 87133  1  0  0  0  0
 87134  1  0  0  0  0
 88 89  1  0  0  0  0
 88 90  1  0  0  0  0
 88120  1  0  0  0  0
 89135  1  0  0  0  0
 89136  1  0  0  0  0
 89137  1  0  0  0  0
 90138  1  0  0  0  0
 90139  1  0  0  0  0
 90140  1  0  0  0  0
 91 92  1  0  0  0  0
 91141  1  0  0  0  0
 91142  1  0  0  0  0
 92 93  1  0  0  0  0
 92 94  1  0  0  0  0
 92121  1  0  0  0  0
 93122  1  0  0  0  0
 94 95  1  0  0  0  0
 94107  1  0  0  0  0
 94123  1  0  0  0  0
 95 96  1  0  0  0  0
 95124  1  0  0  0  0
 96 97  2  0  0  0  0
 96 98  1  0  0  0  0
 98 99  1  0  0  0  0
 99100  1  0  0  0  0
 99106  1  0  0  0  0
 99125  1  0  0  0  0
100101  1  0  0  0  0
100143  1  0  0  0  0
100144  1  0  0  0  0
101102  1  0  0  0  0
102103  1  0  0  0  0
102106  1  0  0  0  0
102126  1  0  0  0  0
103104  1  0  0  0  0
104105  1  0  0  0  0
104145  1  0  0  0  0
104146  1  0  0  0  0
105106  1  0  0  0  0
105147  1  0  0  0  0
105148  1  0  0  0  0
106127  1  0  0  0  0
107113  1  0  0  0  0
107149  1  0  0  0  0
107150  1  0  0  0  0
108109  4  0  0  0  0
108113  4  0  0  0  0
108128  1  0  0  0  0
109110  4  0  0  0  0
109129  1  0  0  0  0
110111  4  0  0  0  0
110130  1  0  0  0  0
111112  4  0  0  0  0
111131  1  0  0  0  0
112113  4  0  0  0  0
112132  1  0  0  0  0
M  END
$$$$
