7Q2V
  PyMOL2.5          3D                             0

  7  7  0  0  0  0  0  0  0  0999 V2000
  -50.0363   -4.9241  -17.7856 C   0  0  0  0  0  0  0  0  0  0  0  0
  -48.6612   -5.0606  -17.2081 N   0  0  0  0  0  0  0  0  0  0  0  0
  -48.5370   -4.3883  -15.8969 C   0  0  0  0  0  0  0  0  0  0  0  0
  -47.0575   -4.0290  -15.7048 C   0  0  0  0  0  0  0  0  0  0  0  0
  -46.5918   -3.6655  -17.1290 C   0  0  0  0  0  0  0  0  0  0  0  0
  -47.5501   -4.4636  -18.0881 C   0  0  0  0  0  0  0  0  0  0  0  0
  -45.2616   -4.0546  -17.2661 O   0  0  0  0  0  0  0  0  0  0  0  0
  1  2  1  0  0  0  0
  2  3  1  0  0  0  0
  3  4  1  0  0  0  0
  4  5  1  0  0  0  0
  5  6  1  0  0  0  0
  5  7  1  0  0  0  0
  2  6  1  0  0  0  0
M  END
$$$$
