7Q42
  PyMOL2.5          3D                             0

 39 36  0  0  0  0  0  0  0  0999 V2000
   40.3146  -17.0534  -20.9855 C   0  0  0  0  0  0  0  0  0  0  0  0
   40.2395  -15.8101  -20.8098 O   0  0  0  0  0  0  0  0  0  0  0  0
   39.1455  -17.9316  -20.5310 C   0  0  0  0  0  0  0  0  0  0  0  0
   41.3470  -17.5583  -21.5056 O   0  0  0  0  0  0  0  0  0  0  0  0
   39.6015  -19.2240  -19.8525 C   0  0  0  0  0  0  0  0  0  0  0  0
   39.0271  -17.3681  -17.3929 O   0  0  0  0  0  0  0  0  0  0  0  0
   40.4584  -18.8950  -18.6291 C   0  0  0  0  0  0  0  0  0  0  0  0
   40.9265  -16.5934  -18.1047 O   0  0  0  0  0  0  0  0  0  0  0  0
   40.1155  -17.5475  -17.9988 C   0  0  0  0  0  0  0  0  0  0  0  0
   38.0348  -21.0423  -20.0416 O   0  0  0  0  0  0  0  0  0  0  0  0
   38.3912  -20.0183  -19.3969 C   0  0  0  0  0  0  0  0  0  0  0  0
   37.7671  -19.6546  -18.3680 O   0  0  0  0  0  0  0  0  0  0  0  0
   40.3092  -20.0393  -20.7515 O   0  0  0  0  0  0  0  0  0  0  0  0
    2.7443    5.3533  -12.3801 C   0  0  0  0  0  0  0  0  0  0  0  0
    1.8028    4.7385  -12.9379 O   0  0  0  0  0  0  0  0  0  0  0  0
    4.1633    4.9232  -12.6772 C   0  0  0  0  0  0  0  0  0  0  0  0
    2.5045    6.3096  -11.5948 O   0  0  0  0  0  0  0  0  0  0  0  0
    5.0062    4.6975  -11.4350 C   0  0  0  0  0  0  0  0  0  0  0  0
    6.3409    4.7689   -8.9764 O   0  0  0  0  0  0  0  0  0  0  0  0
    5.2623    6.0282  -10.7178 C   0  0  0  0  0  0  0  0  0  0  0  0
    6.6725    6.9265   -8.9900 O   0  0  0  0  0  0  0  0  0  0  0  0
    6.1408    5.8998   -9.4834 C   0  0  0  0  0  0  0  0  0  0  0  0
    6.4006    2.9495  -12.3421 O   0  0  0  0  0  0  0  0  0  0  0  0
    6.3305    4.1319  -11.9232 C   0  0  0  0  0  0  0  0  0  0  0  0
    7.3517    4.8658  -11.9215 O   0  0  0  0  0  0  0  0  0  0  0  0
    4.3542    3.7834  -10.5983 O   0  0  0  0  0  0  0  0  0  0  0  0
   -4.1560   10.6879   21.4670 C   0  0  0  0  0  0  0  0  0  0  0  0
   -5.3765   10.6036   21.6539 O   0  0  0  0  0  0  0  0  0  0  0  0
   -3.2517    9.8114   22.3162 C   0  0  0  0  0  0  0  0  0  0  0  0
   -3.6419   11.4256   20.6110 O   0  0  0  0  0  0  0  0  0  0  0  0
   -1.9859   10.4706   22.8701 C   0  0  0  0  0  0  0  0  0  0  0  0
   -1.7412    9.2037   20.0425 O   0  0  0  0  0  0  0  0  0  0  0  0
   -0.7839    9.9769   22.0620 C   0  0  0  0  0  0  0  0  0  0  0  0
   -0.3326   10.8615   19.9258 O   0  0  0  0  0  0  0  0  0  0  0  0
   -0.9656   10.0147   20.5591 C   0  0  0  0  0  0  0  0  0  0  0  0
   -2.7719   12.5903   23.6266 O   0  0  0  0  0  0  0  0  0  0  0  0
   -2.1232   12.0058   22.7425 C   0  0  0  0  0  0  0  0  0  0  0  0
   -1.6075   12.5448   21.7553 O   0  0  0  0  0  0  0  0  0  0  0  0
   -1.8095   10.1064   24.2279 O   0  0  0  0  0  0  0  0  0  0  0  0
  1  2  4  0  0  0  0
  1  3  1  0  0  0  0
  1  4  4  0  0  0  0
  3  5  1  0  0  0  0
  5  7  1  0  0  0  0
  5 11  1  0  0  0  0
  5 13  1  0  0  0  0
  7  9  1  0  0  0  0
  6  9  4  0  0  0  0
  8  9  4  0  0  0  0
 10 11  4  0  0  0  0
 11 12  4  0  0  0  0
 14 15  4  0  0  0  0
 14 16  1  0  0  0  0
 14 17  4  0  0  0  0
 16 18  1  0  0  0  0
 18 20  1  0  0  0  0
 18 24  1  0  0  0  0
 18 26  1  0  0  0  0
 20 22  1  0  0  0  0
 19 22  4  0  0  0  0
 21 22  4  0  0  0  0
 23 24  4  0  0  0  0
 24 25  4  0  0  0  0
 27 28  4  0  0  0  0
 27 29  1  0  0  0  0
 27 30  4  0  0  0  0
 29 31  1  0  0  0  0
 31 33  1  0  0  0  0
 31 37  1  0  0  0  0
 31 39  1  0  0  0  0
 33 35  1  0  0  0  0
 32 35  4  0  0  0  0
 34 35  4  0  0  0  0
 36 37  4  0  0  0  0
 37 38  4  0  0  0  0
M  END
$$$$
