7SDC
  PyMOL2.5          3D                             0

 36 39  0  0  0  0  0  0  0  0999 V2000
   -3.4620   -8.6468   23.5255 O   0  0  0  0  0  0  0  0  0  0  0  0
   -2.9525   -8.9320   22.2999 C   0  0  0  0  0  0  0  0  0  0  0  0
   -3.7861   -9.3313   21.2591 C   0  0  0  0  0  0  0  0  0  0  0  0
   -3.2494   -9.6144   20.0037 C   0  0  0  0  0  0  0  0  0  0  0  0
   -1.8792   -9.4835   19.8151 C   0  0  0  0  0  0  0  0  0  0  0  0
   -1.0578   -9.0848   20.8643 C   0  0  0  0  0  0  0  0  0  0  0  0
   -5.6591   -6.0193   31.2210 C   0  0  0  0  0  0  0  0  0  0  0  0
   -1.5837   -8.8329   22.1197 C   0  0  0  0  0  0  0  0  0  0  0  0
   -5.6303   -4.9658   32.1852 O   0  0  0  0  0  0  0  0  0  0  0  0
   -1.2956   -9.7589   18.6049 O   0  0  0  0  0  0  0  0  0  0  0  0
   -2.9170   -7.5761   24.3034 C   0  0  0  0  0  0  0  0  0  0  0  0
   -3.8001   -7.4777   25.5248 C   0  0  0  0  0  0  0  0  0  0  0  0
   -2.9832   -9.7505   26.2247 C   0  0  0  0  0  0  0  0  0  0  0  0
   -3.7850   -8.5275   26.3538 N   0  0  0  0  0  0  0  0  0  0  0  0
   -4.6510   -8.5424   27.5209 C   0  0  0  0  0  0  0  0  0  0  0  0
   -4.2346   -7.4470   28.4591 C   0  0  0  0  0  0  0  0  0  0  0  0
   -3.3688  -10.6496   27.3867 C   0  0  0  0  0  0  0  0  0  0  0  0
   -5.1915   -6.6965   28.9757 N   0  0  0  0  0  0  0  0  0  0  0  0
   -4.9225   -5.6280   29.9285 C   0  0  0  0  0  0  0  0  0  0  0  0
   -4.8213  -11.1384   27.3912 C   0  0  0  0  0  0  0  0  0  0  0  0
   -5.3660   -4.2651   29.3563 C   0  0  0  0  0  0  0  0  0  0  0  0
   -4.6015   -3.9049   28.0793 C   0  0  0  0  0  0  0  0  0  0  0  0
   -3.1456   -3.5243   28.3646 C   0  0  0  0  0  0  0  0  0  0  0  0
   -2.8555   -2.2804   27.5127 C   0  0  0  0  0  0  0  0  0  0  0  0
   -5.5019  -11.0482   26.0225 C   0  0  0  0  0  0  0  0  0  0  0  0
   -4.1566   -1.8406   27.0624 N   0  0  0  0  0  0  0  0  0  0  0  0
   -5.1335   -2.6916   27.3646 C   0  0  0  0  0  0  0  0  0  0  0  0
   -4.8855  -12.4941   28.0947 C   0  0  0  0  0  0  0  0  0  0  0  0
   -0.0358  -10.4264   18.6140 C   0  0  0  0  0  0  0  0  0  0  0  0
   -6.3150   -2.5054   27.1119 O   0  0  0  0  0  0  0  0  0  0  0  0
   -4.4924   -6.4874   25.6965 O   0  0  0  0  0  0  0  0  0  0  0  0
   -4.4162   -9.8968   28.1956 C   0  0  0  0  0  0  0  0  0  0  0  0
   -3.0580   -7.2677   28.7161 O   0  0  0  0  0  0  0  0  0  0  0  0
    0.9530   -9.9799   17.8553 F   0  0  0  0  0  0  0  0  0  0  0  0
    0.1976  -11.3541   19.5238 F   0  0  0  0  0  0  0  0  0  0  0  0
   -0.4180  -11.3270   17.7189 F   0  0  0  0  0  0  0  0  0  0  0  0
  1  2  1  0  0  0  0
  2  3  1  0  0  0  0
  2  8  1  0  0  0  0
  3  4  1  0  0  0  0
  4  5  1  0  0  0  0
  5  6  1  0  0  0  0
  5 10  1  0  0  0  0
  6  8  1  0  0  0  0
  7  9  1  0  0  0  0
  1 11  1  0  0  0  0
 11 12  1  0  0  0  0
 12 14  1  0  0  0  0
 12 31  2  0  0  0  0
 13 14  1  0  0  0  0
 13 17  1  0  0  0  0
 14 15  1  0  0  0  0
 15 16  1  0  0  0  0
 15 32  1  0  0  0  0
 16 18  1  0  0  0  0
 16 33  2  0  0  0  0
 17 20  1  0  0  0  0
 17 32  1  0  0  0  0
  7 19  1  0  0  0  0
 18 19  1  0  0  0  0
 19 21  1  0  0  0  0
 20 25  1  0  0  0  0
 20 28  1  0  0  0  0
 20 32  1  0  0  0  0
 21 22  1  0  0  0  0
 22 23  1  0  0  0  0
 22 27  1  0  0  0  0
 23 24  1  0  0  0  0
 24 26  1  0  0  0  0
 26 27  1  0  0  0  0
 27 30  2  0  0  0  0
 10 29  1  0  0  0  0
 29 34  1  0  0  0  0
 29 35  1  0  0  0  0
 29 36  1  0  0  0  0
M  END
$$$$
