7TWM
  PyMOL2.5          3D                             0

140146  0  0  0  0  0  0  0  0999 V2000
  -30.5181  -10.2672   16.2862 N   0  0  0  0  0  0  0  0  0  0  0  0
  -31.4348   -9.4164   17.0714 C   0  0  0  0  0  0  0  0  0  0  0  0
  -32.4944   -8.8584   16.1264 C   0  0  0  0  0  0  0  0  0  0  0  0
  -32.1592   -8.4328   15.0163 O   0  0  0  0  0  0  0  0  0  0  0  0
  -30.7673   -8.2716   17.8486 C   0  0  0  0  0  0  0  0  0  0  0  0
  -29.7296   -8.7135   18.8820 C   0  0  0  0  0  0  0  0  0  0  0  0
  -29.2130   -7.5131   19.6581 C   0  0  0  0  0  0  0  0  0  0  0  0
  -30.3072   -9.7699   19.8317 C   0  0  0  0  0  0  0  0  0  0  0  0
  -29.3694   -9.6320   15.6360 C   0  0  0  0  0  0  0  0  0  0  0  0
  -33.7716   -8.8922   16.5034 N   0  0  0  0  0  0  0  0  0  0  0  0
  -34.8191   -8.4448   15.5534 C   0  0  0  0  0  0  0  0  0  0  0  0
  -35.6254   -7.2242   15.9627 C   0  0  0  0  0  0  0  0  0  0  0  0
  -36.6822   -6.9545   15.3793 O   0  0  0  0  0  0  0  0  0  0  0  0
  -35.7506   -9.6146   15.2948 C   0  0  0  0  0  0  0  0  0  0  0  0
  -35.1418  -10.6133   14.3257 C   0  0  0  0  0  0  0  0  0  0  0  0
  -35.5851  -12.0277   14.6533 C   0  0  0  0  0  0  0  0  0  0  0  0
  -35.4867  -10.2255   12.8917 C   0  0  0  0  0  0  0  0  0  0  0  0
  -34.2109   -9.4168   17.7945 C   0  0  0  0  0  0  0  0  0  0  0  0
  -62.2960  -66.3735    2.5830 N   0  0  0  0  0  0  0  0  0  0  0  0
  -62.0556  -66.7490    1.1733 C   0  0  0  0  0  0  0  0  0  0  0  0
  -62.8404  -65.8327    0.2474 C   0  0  0  0  0  0  0  0  0  0  0  0
  -64.0361  -65.6328    0.4565 O   0  0  0  0  0  0  0  0  0  0  0  0
  -62.3601  -68.2151    0.8475 C   0  0  0  0  0  0  0  0  0  0  0  0
  -61.4997  -69.2070    1.6239 C   0  0  0  0  0  0  0  0  0  0  0  0
  -61.7604  -70.6232    1.1412 C   0  0  0  0  0  0  0  0  0  0  0  0
  -60.0254  -68.8603    1.4842 C   0  0  0  0  0  0  0  0  0  0  0  0
  -63.4611  -66.9548    3.2492 C   0  0  0  0  0  0  0  0  0  0  0  0
  -62.1933  -65.2281   -0.7503 N   0  0  0  0  0  0  0  0  0  0  0  0
  -62.8945  -64.2021   -1.5646 C   0  0  0  0  0  0  0  0  0  0  0  0
  -63.1646  -64.5618   -3.0200 C   0  0  0  0  0  0  0  0  0  0  0  0
  -63.5273  -63.6976   -3.8137 O   0  0  0  0  0  0  0  0  0  0  0  0
  -62.1249  -62.8894   -1.4734 C   0  0  0  0  0  0  0  0  0  0  0  0
  -62.3312  -62.1940   -0.1382 C   0  0  0  0  0  0  0  0  0  0  0  0
  -61.1188  -61.3585    0.2349 C   0  0  0  0  0  0  0  0  0  0  0  0
  -63.6040  -61.3649   -0.1822 C   0  0  0  0  0  0  0  0  0  0  0  0
  -60.8010  -65.5223   -1.0528 C   0  0  0  0  0  0  0  0  0  0  0  0
  -38.5768  -13.6268   19.2750 N   0  0  0  0  0  0  0  0  0  0  0  0
  -37.5995  -14.1448   20.2692 C   0  0  0  0  0  0  0  0  0  0  0  0
  -38.3628  -14.8536   21.3935 C   0  0  0  0  0  0  0  0  0  0  0  0
  -37.7328  -15.2552   22.3805 O   0  0  0  0  0  0  0  0  0  0  0  0
  -36.7767  -13.0055   20.8869 C   0  0  0  0  0  0  0  0  0  0  0  0
  -35.9369  -12.2168   19.8791 C   0  0  0  0  0  0  0  0  0  0  0  0
  -34.9682  -10.8655   20.6218 S   0  0  0  0  0  0  0  0  0  0  0  0
  -33.4542  -11.6907   21.1732 C   0  0  0  0  0  0  0  0  0  0  0  0
  -33.3916  -11.6927   22.6862 C   0  0  0  0  0  0  0  0  0  0  0  0
  -34.1820  -12.8003   23.1735 O   0  0  0  0  0  0  0  0  0  0  0  0
  -31.9967  -11.9515   23.2499 C   0  0  0  0  0  0  0  0  0  0  0  0
  -31.1908  -10.7813   23.2761 O   0  0  0  0  0  0  0  0  0  0  0  0
  -32.3371  -12.5314   24.6205 C   0  0  0  0  0  0  0  0  0  0  0  0
  -32.6993  -11.5495   25.5673 O   0  0  0  0  0  0  0  0  0  0  0  0
  -33.5225  -13.4244   24.2528 C   0  0  0  0  0  0  0  0  0  0  0  0
  -39.5925  -15.0564   21.3492 O   0  0  0  0  0  0  0  0  0  0  0  0
  -31.8469  -17.9991   25.8847 N   0  0  0  0  0  0  0  0  0  0  0  0
  -32.2406  -16.8992   26.5488 C   0  0  0  0  0  0  0  0  0  0  0  0
  -32.6666  -15.7374   26.0571 N   0  0  0  0  0  0  0  0  0  0  0  0
  -32.7102  -15.7700   24.7098 C   0  0  0  0  0  0  0  0  0  0  0  0
  -32.3518  -16.8294   23.8974 C   0  0  0  0  0  0  0  0  0  0  0  0
  -31.9019  -18.0019   24.5290 C   0  0  0  0  0  0  0  0  0  0  0  0
  -31.5028  -19.0888   23.8677 N   0  0  0  0  0  0  0  0  0  0  0  0
  -32.5125  -16.4956   22.5606 N   0  0  0  0  0  0  0  0  0  0  0  0
  -32.9619  -15.2645   22.5914 C   0  0  0  0  0  0  0  0  0  0  0  0
  -33.1031  -14.7656   23.8611 N   0  0  0  0  0  0  0  0  0  0  0  0
  -50.8785  -22.4036   31.9844 N   0  0  0  0  0  0  0  0  0  0  0  0
  -51.8257  -21.4751   31.3131 C   0  0  0  0  0  0  0  0  0  0  0  0
  -51.0272  -20.4887   30.4448 C   0  0  0  0  0  0  0  0  0  0  0  0
  -51.4560  -19.3871   30.0937 O   0  0  0  0  0  0  0  0  0  0  0  0
  -52.6663  -20.7333   32.3634 C   0  0  0  0  0  0  0  0  0  0  0  0
  -54.0647  -20.3775   31.8902 C   0  0  0  0  0  0  0  0  0  0  0  0
  -55.1820  -19.9114   33.2555 S   0  0  0  0  0  0  0  0  0  0  0  0
  -54.5888  -18.3062   33.8010 C   0  0  0  0  0  0  0  0  0  0  0  0
  -55.1787  -17.1387   33.0272 C   0  0  0  0  0  0  0  0  0  0  0  0
  -54.9084  -17.2841   31.6202 O   0  0  0  0  0  0  0  0  0  0  0  0
  -56.6953  -16.9957   33.0640 C   0  0  0  0  0  0  0  0  0  0  0  0
  -57.0615  -16.4289   34.3173 O   0  0  0  0  0  0  0  0  0  0  0  0
  -56.9018  -16.0357   31.8841 C   0  0  0  0  0  0  0  0  0  0  0  0
  -56.5900  -14.7133   32.2599 O   0  0  0  0  0  0  0  0  0  0  0  0
  -55.8467  -16.5214   30.8883 C   0  0  0  0  0  0  0  0  0  0  0  0
  -49.9018  -20.7898   30.0468 O   0  0  0  0  0  0  0  0  0  0  0  0
  -57.6887  -16.6591   26.0798 N   0  0  0  0  0  0  0  0  0  0  0  0
  -57.2236  -15.6533   26.8313 C   0  0  0  0  0  0  0  0  0  0  0  0
  -56.7589  -15.6798   28.0763 N   0  0  0  0  0  0  0  0  0  0  0  0
  -56.7865  -16.9323   28.5716 C   0  0  0  0  0  0  0  0  0  0  0  0
  -57.2366  -18.0666   27.9224 C   0  0  0  0  0  0  0  0  0  0  0  0
  -57.7152  -17.9081   26.6070 C   0  0  0  0  0  0  0  0  0  0  0  0
  -58.1790  -18.9122   25.8604 N   0  0  0  0  0  0  0  0  0  0  0  0
  -57.1241  -19.1809   28.7501 N   0  0  0  0  0  0  0  0  0  0  0  0
  -56.6081  -18.7081   29.8597 C   0  0  0  0  0  0  0  0  0  0  0  0
  -56.3876  -17.3515   29.8196 N   0  0  0  0  0  0  0  0  0  0  0  0
  -55.8908  -61.6496   -2.0420 N   0  0  0  0  0  0  0  0  0  0  0  0
  -55.0964  -62.6475   -1.2767 C   0  0  0  0  0  0  0  0  0  0  0  0
  -53.6326  -62.5433   -1.7095 C   0  0  0  0  0  0  0  0  0  0  0  0
  -52.8068  -63.3564   -1.3039 O   0  0  0  0  0  0  0  0  0  0  0  0
  -55.5882  -64.0828   -1.5122 C   0  0  0  0  0  0  0  0  0  0  0  0
  -57.0382  -64.3130   -1.1444 C   0  0  0  0  0  0  0  0  0  0  0  0
  -57.6159  -66.0068   -1.4777 S   0  0  0  0  0  0  0  0  0  0  0  0
  -56.9905  -66.9006   -0.0135 C   0  0  0  0  0  0  0  0  0  0  0  0
  -55.8748  -67.8645   -0.3221 C   0  0  0  0  0  0  0  0  0  0  0  0
  -54.6154  -67.1557   -0.4300 O   0  0  0  0  0  0  0  0  0  0  0  0
  -55.6313  -68.9294    0.7485 C   0  0  0  0  0  0  0  0  0  0  0  0
  -56.5004  -70.0389    0.5638 O   0  0  0  0  0  0  0  0  0  0  0  0
  -54.1751  -69.2865    0.4624 C   0  0  0  0  0  0  0  0  0  0  0  0
  -54.0152  -70.1402   -0.6490 O   0  0  0  0  0  0  0  0  0  0  0  0
  -53.5866  -67.9049    0.1829 C   0  0  0  0  0  0  0  0  0  0  0  0
  -53.2513  -61.6364   -2.4672 O   0  0  0  0  0  0  0  0  0  0  0  0
  -49.9977  -67.6518    3.8847 N   0  0  0  0  0  0  0  0  0  0  0  0
  -50.0975  -68.4113    2.7838 C   0  0  0  0  0  0  0  0  0  0  0  0
  -51.0518  -68.4223    1.8586 N   0  0  0  0  0  0  0  0  0  0  0  0
  -52.0101  -67.5168    2.1336 C   0  0  0  0  0  0  0  0  0  0  0  0
  -52.0436  -66.6683    3.2215 C   0  0  0  0  0  0  0  0  0  0  0  0
  -50.9790  -66.7544    4.1404 C   0  0  0  0  0  0  0  0  0  0  0  0
  -50.8917  -66.0177    5.2457 N   0  0  0  0  0  0  0  0  0  0  0  0
  -53.1836  -65.8759    3.1815 N   0  0  0  0  0  0  0  0  0  0  0  0
  -53.8067  -66.2517    2.0919 C   0  0  0  0  0  0  0  0  0  0  0  0
  -53.1437  -67.2418    1.4054 N   0  0  0  0  0  0  0  0  0  0  0  0
  -37.9255  -57.4114   -9.1465 N   0  0  0  0  0  0  0  0  0  0  0  0
  -38.7594  -56.8845  -10.2575 C   0  0  0  0  0  0  0  0  0  0  0  0
  -40.2030  -57.3423  -10.0368 C   0  0  0  0  0  0  0  0  0  0  0  0
  -41.0324  -57.4119  -10.9631 O   0  0  0  0  0  0  0  0  0  0  0  0
  -38.2544  -57.3942  -11.6152 C   0  0  0  0  0  0  0  0  0  0  0  0
  -38.4838  -56.4103  -12.7677 C   0  0  0  0  0  0  0  0  0  0  0  0
  -37.4215  -56.7247  -14.2177 S   0  0  0  0  0  0  0  0  0  0  0  0
  -38.1154  -58.2409  -14.9171 C   0  0  0  0  0  0  0  0  0  0  0  0
  -39.2529  -58.0474  -15.9008 C   0  0  0  0  0  0  0  0  0  0  0  0
  -40.3607  -57.3802  -15.2525 O   0  0  0  0  0  0  0  0  0  0  0  0
  -38.9672  -57.1652  -17.1199 C   0  0  0  0  0  0  0  0  0  0  0  0
  -38.2865  -57.9093  -18.1196 O   0  0  0  0  0  0  0  0  0  0  0  0
  -40.3937  -56.8519  -17.5726 C   0  0  0  0  0  0  0  0  0  0  0  0
  -40.9348  -57.9208  -18.3238 O   0  0  0  0  0  0  0  0  0  0  0  0
  -41.1068  -56.6862  -16.2275 C   0  0  0  0  0  0  0  0  0  0  0  0
  -40.5597  -57.6510   -8.8862 O   0  0  0  0  0  0  0  0  0  0  0  0
  -44.1614  -52.5700  -16.2823 N   0  0  0  0  0  0  0  0  0  0  0  0
  -44.3224  -53.8165  -16.7504 C   0  0  0  0  0  0  0  0  0  0  0  0
  -43.4780  -54.8397  -16.6976 N   0  0  0  0  0  0  0  0  0  0  0  0
  -42.3425  -54.4970  -16.0592 C   0  0  0  0  0  0  0  0  0  0  0  0
  -42.0328  -53.2592  -15.5267 C   0  0  0  0  0  0  0  0  0  0  0  0
  -43.0069  -52.2490  -15.6515 C   0  0  0  0  0  0  0  0  0  0  0  0
  -42.8534  -51.0060  -15.2045 N   0  0  0  0  0  0  0  0  0  0  0  0
  -40.7605  -53.2806  -14.9669 N   0  0  0  0  0  0  0  0  0  0  0  0
  -40.3339  -54.5011  -15.1738 C   0  0  0  0  0  0  0  0  0  0  0  0
  -41.2522  -55.2932  -15.8165 N   0  0  0  0  0  0  0  0  0  0  0  0
  1  2  1  0  0  0  0
  1  9  1  0  0  0  0
  2  3  1  0  0  0  0
  2  5  1  0  0  0  0
  3  4  2  0  0  0  0
  3 10  1  0  0  0  0
  5  6  1  0  0  0  0
  6  7  1  0  0  0  0
  6  8  1  0  0  0  0
 10 11  1  0  0  0  0
 10 18  1  0  0  0  0
 11 12  1  0  0  0  0
 11 14  1  0  0  0  0
 12 13  2  0  0  0  0
 14 15  1  0  0  0  0
 15 16  1  0  0  0  0
 15 17  1  0  0  0  0
 19 20  1  0  0  0  0
 19 27  1  0  0  0  0
 20 21  1  0  0  0  0
 20 23  1  0  0  0  0
 21 22  2  0  0  0  0
 21 28  1  0  0  0  0
 23 24  1  0  0  0  0
 24 25  1  0  0  0  0
 24 26  1  0  0  0  0
 28 29  1  0  0  0  0
 28 36  1  0  0  0  0
 29 30  1  0  0  0  0
 29 32  1  0  0  0  0
 30 31  2  0  0  0  0
 32 33  1  0  0  0  0
 33 34  1  0  0  0  0
 33 35  1  0  0  0  0
 37 38  1  0  0  0  0
 38 39  1  0  0  0  0
 38 41  1  0  0  0  0
 39 40  4  0  0  0  0
 39 52  4  0  0  0  0
 41 42  1  0  0  0  0
 42 43  1  0  0  0  0
 43 44  1  0  0  0  0
 44 45  1  0  0  0  0
 45 46  1  0  0  0  0
 45 47  1  0  0  0  0
 46 51  1  0  0  0  0
 47 48  1  0  0  0  0
 47 49  1  0  0  0  0
 49 50  1  0  0  0  0
 49 51  1  0  0  0  0
 51 62  1  0  0  0  0
 53 54  4  0  0  0  0
 54 55  4  0  0  0  0
 55 56  4  0  0  0  0
 56 57  4  0  0  0  0
 57 58  4  0  0  0  0
 53 58  4  0  0  0  0
 58 59  1  0  0  0  0
 57 60  4  0  0  0  0
 60 61  4  0  0  0  0
 56 62  4  0  0  0  0
 61 62  4  0  0  0  0
 63 64  1  0  0  0  0
 64 65  1  0  0  0  0
 64 67  1  0  0  0  0
 65 66  4  0  0  0  0
 65 78  4  0  0  0  0
 67 68  1  0  0  0  0
 68 69  1  0  0  0  0
 69 70  1  0  0  0  0
 70 71  1  0  0  0  0
 71 72  1  0  0  0  0
 71 73  1  0  0  0  0
 72 77  1  0  0  0  0
 73 74  1  0  0  0  0
 73 75  1  0  0  0  0
 75 76  1  0  0  0  0
 75 77  1  0  0  0  0
 77 88  1  0  0  0  0
 79 80  4  0  0  0  0
 80 81  4  0  0  0  0
 81 82  4  0  0  0  0
 82 83  4  0  0  0  0
 83 84  4  0  0  0  0
 79 84  4  0  0  0  0
 84 85  1  0  0  0  0
 83 86  4  0  0  0  0
 86 87  4  0  0  0  0
 82 88  4  0  0  0  0
 87 88  4  0  0  0  0
 89 90  1  0  0  0  0
 90 91  1  0  0  0  0
 90 93  1  0  0  0  0
 91 92  4  0  0  0  0
 91104  4  0  0  0  0
 93 94  1  0  0  0  0
 94 95  1  0  0  0  0
 95 96  1  0  0  0  0
 96 97  1  0  0  0  0
 97 98  1  0  0  0  0
 97 99  1  0  0  0  0
 98103  1  0  0  0  0
 99100  1  0  0  0  0
 99101  1  0  0  0  0
101102  1  0  0  0  0
101103  1  0  0  0  0
103114  1  0  0  0  0
105106  4  0  0  0  0
106107  4  0  0  0  0
107108  4  0  0  0  0
108109  4  0  0  0  0
109110  4  0  0  0  0
105110  4  0  0  0  0
110111  1  0  0  0  0
109112  4  0  0  0  0
112113  4  0  0  0  0
108114  4  0  0  0  0
113114  4  0  0  0  0
115116  1  0  0  0  0
116117  1  0  0  0  0
116119  1  0  0  0  0
117118  4  0  0  0  0
117130  4  0  0  0  0
119120  1  0  0  0  0
120121  1  0  0  0  0
121122  1  0  0  0  0
122123  1  0  0  0  0
123124  1  0  0  0  0
123125  1  0  0  0  0
124129  1  0  0  0  0
125126  1  0  0  0  0
125127  1  0  0  0  0
127128  1  0  0  0  0
127129  1  0  0  0  0
129140  1  0  0  0  0
131132  4  0  0  0  0
132133  4  0  0  0  0
133134  4  0  0  0  0
134135  4  0  0  0  0
135136  4  0  0  0  0
131136  4  0  0  0  0
136137  1  0  0  0  0
135138  4  0  0  0  0
138139  4  0  0  0  0
134140  4  0  0  0  0
139140  4  0  0  0  0
M  END
$$$$
