7Z6K
  PyMOL2.5          3D                             0

160169  0  0  0  0  0  0  0  0999 V2000
  -30.3907  -15.9155   29.1273 P   0  0  0  0  0  0  0  0  0  0  0  0
  -28.5673  -17.0895   27.6056 C   0  0  0  0  0  0  0  0  0  0  0  0
  -28.9497  -16.6109   28.8914 O   0  0  0  0  0  0  0  0  0  0  0  0
  -27.6287  -16.0510   27.0125 C   0  0  0  0  0  0  0  0  0  0  0  0
  -26.3562  -16.0399   27.6656 O   0  0  0  0  0  0  0  0  0  0  0  0
  -27.3727  -16.2936   25.5341 C   0  0  0  0  0  0  0  0  0  0  0  0
  -28.1423  -15.3238   24.8077 O   0  0  0  0  0  0  0  0  0  0  0  0
  -25.8732  -16.0958   25.3778 C   0  0  0  0  0  0  0  0  0  0  0  0
  -25.4076  -15.5376   26.7238 C   0  0  0  0  0  0  0  0  0  0  0  0
  -20.7664  -13.4991   27.9828 N   0  0  0  0  0  0  0  0  0  0  0  0
  -21.9250  -12.9038   27.6439 C   0  0  0  0  0  0  0  0  0  0  0  0
  -23.0483  -13.5819   27.3447 N   0  0  0  0  0  0  0  0  0  0  0  0
  -23.0720  -14.9392   27.3662 C   0  0  0  0  0  0  0  0  0  0  0  0
  -21.8409  -15.6640   27.7289 C   0  0  0  0  0  0  0  0  0  0  0  0
  -20.6428  -14.8447   28.0461 C   0  0  0  0  0  0  0  0  0  0  0  0
  -19.4610  -15.4177   28.3880 N   0  0  0  0  0  0  0  0  0  0  0  0
  -22.1436  -16.9797   27.6695 N   0  0  0  0  0  0  0  0  0  0  0  0
  -23.4538  -17.0846   27.3081 C   0  0  0  0  0  0  0  0  0  0  0  0
  -24.0053  -15.8657   27.1126 N   0  0  0  0  0  0  0  0  0  0  0  0
  -30.2003  -14.4700   28.7049 O   0  0  0  0  0  0  0  0  0  0  0  0
  -31.3403  -16.6975   28.2437 O   0  5  0  0  0  0  0  0  0  0  0  0
  -30.6237  -16.0998   30.6118 O   0  0  0  0  0  0  0  0  0  0  0  0
  -25.3060  -17.3125   25.1134 F   0  0  0  0  0  0  0  0  0  0  0  0
  -28.5057  -15.5518   23.2581 P   0  0  0  0  0  0  0  0  0  0  0  0
  -28.5338  -17.0531   23.0264 O   0  5  0  0  0  0  0  0  0  0  0  0
  -29.7062  -14.6752   22.9407 O   0  0  0  0  0  0  0  0  0  0  0  0
  -26.9491  -13.5399   22.7957 C   0  0  0  0  0  0  0  0  0  0  0  0
  -27.2451  -14.9018   22.4934 O   0  0  0  0  0  0  0  0  0  0  0  0
  -25.4750  -13.2292   22.5606 C   0  0  0  0  0  0  0  0  0  0  0  0
  -24.6204  -13.8154   23.5501 O   0  0  0  0  0  0  0  0  0  0  0  0
  -24.9688  -13.7381   21.2179 C   0  0  0  0  0  0  0  0  0  0  0  0
  -25.1067  -12.7157   20.2229 O   0  0  0  0  0  0  0  0  0  0  0  0
  -23.5089  -14.0836   21.4684 C   0  0  0  0  0  0  0  0  0  0  0  0
  -23.3097  -13.8920   22.9773 C   0  0  0  0  0  0  0  0  0  0  0  0
  -22.4360  -14.9016   23.6075 N   0  0  0  0  0  0  0  0  0  0  0  0
  -22.7485  -16.2886   23.6542 C   0  0  0  0  0  0  0  0  0  0  0  0
  -23.8036  -16.7349   23.1480 O   0  0  0  0  0  0  0  0  0  0  0  0
  -21.8947  -17.1593   24.2383 N   0  0  0  0  0  0  0  0  0  0  0  0
  -20.7400  -16.7279   24.7914 C   0  0  0  0  0  0  0  0  0  0  0  0
  -19.9058  -17.6218   25.3767 N   0  0  0  0  0  0  0  0  0  0  0  0
  -20.4184  -15.3737   24.7623 C   0  0  0  0  0  0  0  0  0  0  0  0
  -21.2905  -14.4729   24.1609 C   0  0  0  0  0  0  0  0  0  0  0  0
  -23.2642  -15.3730   21.0620 F   0  0  0  0  0  0  0  0  0  0  0  0
  -26.1994  -12.8767   19.0570 P   0  0  0  0  0  0  0  0  0  0  0  0
  -27.4833  -13.4388   19.6267 O   0  5  0  0  0  0  0  0  0  0  0  0
  -26.0844  -11.5149   18.4248 O   0  0  0  0  0  0  0  0  0  0  0  0
  -24.4290  -13.8461   17.3262 C   0  0  0  0  0  0  0  0  0  0  0  0
  -25.5890  -14.0422   18.1199 O   0  0  0  0  0  0  0  0  0  0  0  0
  -23.9902  -15.2290   16.8562 C   0  0  0  0  0  0  0  0  0  0  0  0
  -23.5954  -16.0477   17.9685 O   0  0  0  0  0  0  0  0  0  0  0  0
  -25.0994  -16.0114   16.1629 C   0  0  0  0  0  0  0  0  0  0  0  0
  -25.1292  -15.7523   14.7575 O   0  0  0  0  0  0  0  0  0  0  0  0
  -24.6980  -17.4595   16.4013 C   0  0  0  0  0  0  0  0  0  0  0  0
  -23.8227  -17.4228   17.6522 C   0  0  0  0  0  0  0  0  0  0  0  0
  -24.4775  -18.1748   18.7301 N   0  0  0  0  0  0  0  0  0  0  0  0
  -25.5117  -17.6266   19.5246 C   0  0  0  0  0  0  0  0  0  0  0  0
  -25.9028  -16.4579   19.3461 O   0  0  0  0  0  0  0  0  0  0  0  0
  -26.0961  -18.3672   20.5015 N   0  0  0  0  0  0  0  0  0  0  0  0
  -25.6986  -19.6408   20.7215 C   0  0  0  0  0  0  0  0  0  0  0  0
  -26.2867  -20.3742   21.6994 N   0  0  0  0  0  0  0  0  0  0  0  0
  -24.6829  -20.1961   19.9465 C   0  0  0  0  0  0  0  0  0  0  0  0
  -24.0812  -19.4385   18.9464 C   0  0  0  0  0  0  0  0  0  0  0  0
  -25.7795  -18.3031   16.5452 F   0  0  0  0  0  0  0  0  0  0  0  0
  -26.0013  -14.5400   14.1706 P   0  0  0  0  0  0  0  0  0  0  0  0
  -23.8761  -13.3987   13.3463 C   0  0  0  0  0  0  0  0  0  0  0  0
  -25.0152  -13.2741   14.2166 O   0  0  0  0  0  0  0  0  0  0  0  0
  -23.1687  -12.0716   13.2590 C   0  0  0  0  0  0  0  0  0  0  0  0
  -22.9660  -11.5443   14.5917 O   0  0  0  0  0  0  0  0  0  0  0  0
  -21.7826  -12.1702   12.6386 C   0  0  0  0  0  0  0  0  0  0  0  0
  -21.5144  -11.0481   11.8045 O   0  0  0  0  0  0  0  0  0  0  0  0
  -20.9255  -12.1942   13.9058 C   0  0  0  0  0  0  0  0  0  0  0  0
  -21.6230  -11.1153   14.7551 C   0  0  0  0  0  0  0  0  0  0  0  0
  -20.7230  -13.6151   19.1974 N   0  0  0  0  0  0  0  0  0  0  0  0
  -19.5019  -11.9581   13.6225 N   0  0  0  0  0  0  0  0  0  0  0  0
  -20.9016  -14.0602   17.9522 C   0  0  0  0  0  0  0  0  0  0  0  0
  -18.7289  -12.9485   13.1340 N   0  0  0  0  0  0  0  0  0  0  0  0
  -21.1286  -13.3614   16.8380 N   0  0  0  0  0  0  0  0  0  0  0  0
  -17.5479  -12.4352   12.9011 N   0  0  0  0  0  0  0  0  0  0  0  0
  -21.1503  -12.0497   17.0879 C   0  0  0  0  0  0  0  0  0  0  0  0
  -17.5571  -11.1195   13.2496 C   0  0  0  0  0  0  0  0  0  0  0  0
  -20.9681  -11.4380   18.3179 C   0  0  0  0  0  0  0  0  0  0  0  0
  -18.8031  -10.8088   13.7146 C   0  0  0  0  0  0  0  0  0  0  0  0
  -20.7561  -12.2838   19.4236 C   0  0  0  0  0  0  0  0  0  0  0  0
  -16.3442  -10.2581   13.1120 C   0  0  0  0  0  0  0  0  0  0  0  0
  -20.6079  -11.8473   20.6791 N   0  0  0  0  0  0  0  0  0  0  0  0
  -15.7355  -10.3946   11.7314 C   0  0  0  0  0  0  0  0  0  0  0  0
  -21.0203  -10.0585   18.1938 N   0  0  0  0  0  0  0  0  0  0  0  0
  -21.2367   -9.8701   16.9155 C   0  0  0  0  0  0  0  0  0  0  0  0
  -21.3333  -11.0280   16.1864 N   0  0  0  0  0  0  0  0  0  0  0  0
  -27.2050  -14.2896   15.1005 O   0  5  0  0  0  0  0  0  0  0  0  0
  -26.3226  -14.7986   12.7414 O   0  5  0  0  0  0  0  0  0  0  0  0
  -12.8300    0.4164    5.8434 P   0  0  0  0  0  0  0  0  0  0  0  0
  -14.6746    2.4624    4.9701 P   0  0  0  0  0  0  0  0  0  0  0  0
  -10.5525    1.5278    6.5857 C   0  0  0  0  0  0  0  0  0  0  0  0
  -11.6815    0.6794    6.8928 O   0  0  0  0  0  0  0  0  0  0  0  0
   -9.5643    1.3029    7.7012 C   0  0  0  0  0  0  0  0  0  0  0  0
   -8.2929    1.9259    7.3969 O   0  0  0  0  0  0  0  0  0  0  0  0
   -9.9829    1.8251    9.0840 C   0  0  0  0  0  0  0  0  0  0  0  0
   -9.7750    0.7712   10.0173 O   0  0  0  0  0  0  0  0  0  0  0  0
   -9.0114    2.9895    9.3181 C   0  0  0  0  0  0  0  0  0  0  0  0
   -8.7396    3.2467   10.6918 O   0  0  0  0  0  0  0  0  0  0  0  0
   -7.7830    2.4554    8.5957 C   0  0  0  0  0  0  0  0  0  0  0  0
   -6.7673    3.4731    8.2839 N   0  0  0  0  0  0  0  0  0  0  0  0
  -12.2256   -0.3384    4.7218 O   0  5  0  0  0  0  0  0  0  0  0  0
  -15.2489    1.4490    3.9844 O   0  5  0  0  0  0  0  0  0  0  0  0
   -5.4599    3.1906    8.6480 C   0  0  0  0  0  0  0  0  0  0  0  0
   -5.1286    2.1385    9.1780 O   0  0  0  0  0  0  0  0  0  0  0  0
  -14.0566   -0.1767    6.5277 O   0  0  0  0  0  0  0  0  0  0  0  0
   -4.5514    4.1767    8.3650 N   0  0  0  0  0  0  0  0  0  0  0  0
  -13.2526    1.8726    5.3506 O   0  0  0  0  0  0  0  0  0  0  0  0
  -14.5559    3.8516    4.3893 O   0  0  0  0  0  0  0  0  0  0  0  0
   -4.8077    5.3985    7.7753 C   0  0  0  0  0  0  0  0  0  0  0  0
   -3.8715    6.1916    7.5759 O   0  0  0  0  0  0  0  0  0  0  0  0
   -6.1879    5.6268    7.4375 C   0  0  0  0  0  0  0  0  0  0  0  0
   -7.1088    4.6755    7.7041 C   0  0  0  0  0  0  0  0  0  0  0  0
  -15.3090    3.2502    7.4297 C   0  0  0  0  0  0  0  0  0  0  0  0
  -15.4525    2.4131    6.3213 O   0  0  0  0  0  0  0  0  0  0  0  0
  -15.6975    2.4693    8.6884 C   0  0  0  0  0  0  0  0  0  0  0  0
  -14.8689    1.2890    8.8327 N   0  0  0  0  0  0  0  0  0  0  0  0
  -17.1845    2.1184    8.6451 C   0  0  0  0  0  0  0  0  0  0  0  0
  -17.5658    1.6109    9.9296 O   0  0  0  0  0  0  0  0  0  0  0  0
  -18.0372    3.3423    8.3397 C   0  0  0  0  0  0  0  0  0  0  0  0
  -19.3946    2.9756    8.0976 O   0  0  0  0  0  0  0  0  0  0  0  0
  -17.5260    4.1053    7.1216 C   0  0  0  0  0  0  0  0  0  0  0  0
  -16.1243    4.4046    7.2856 O   0  0  0  0  0  0  0  0  0  0  0  0
  -18.2442    5.4273    6.9499 C   0  0  0  0  0  0  0  0  0  0  0  0
  -17.9187    6.0659    5.7094 O   0  0  0  0  0  0  0  0  0  0  0  0
  -13.9345    1.1801    9.7825 C   0  0  0  0  0  0  0  0  0  0  0  0
  -13.7612    2.0575   10.6237 O   0  0  0  0  0  0  0  0  0  0  0  0
  -13.1130   -0.0702    9.7609 C   0  0  0  0  0  0  0  0  0  0  0  0
  -17.6650    0.1850   10.0342 C   0  0  0  0  0  0  0  0  0  0  0  0
  -16.6522   -0.3697   11.0405 C   0  0  0  0  0  0  0  0  0  0  0  0
  -15.9891   -1.3835   10.7046 O   0  0  0  0  0  0  0  0  0  0  0  0
  -19.0833   -0.1346   10.4481 C   0  0  0  0  0  0  0  0  0  0  0  0
  -16.5418   -1.4832   14.0374 N   0  0  0  0  0  0  0  0  0  0  0  0
  -16.7534   -2.7034   14.8029 C   0  0  0  0  0  0  0  0  0  0  0  0
  -17.2346   -2.3558   16.1843 C   0  0  0  0  0  0  0  0  0  0  0  0
  -17.8919   -1.3385   16.3747 O   0  0  0  0  0  0  0  0  0  0  0  0
  -17.8062   -3.5784   14.1300 C   0  0  0  0  0  0  0  0  0  0  0  0
  -17.3974   -3.9566   12.7123 C   0  0  0  0  0  0  0  0  0  0  0  0
  -16.5508   -5.2143   12.7233 C   0  0  0  0  0  0  0  0  0  0  0  0
  -15.9008   -5.5282   13.7101 O   0  0  0  0  0  0  0  0  0  0  0  0
  -16.9665   -3.1630   17.2133 O   0  0  0  0  0  0  0  0  0  0  0  0
  -13.8007   -5.0922    9.6517 N   0  0  0  0  0  0  0  0  0  0  0  0
  -13.2202   -4.7865    8.3505 C   0  0  0  0  0  0  0  0  0  0  0  0
  -14.2496   -5.0363    7.2528 C   0  0  0  0  0  0  0  0  0  0  0  0
  -15.4149   -4.6148    7.3782 O   0  0  0  0  0  0  0  0  0  0  0  0
  -12.7573   -3.3398    8.3209 C   0  0  0  0  0  0  0  0  0  0  0  0
  -13.8313   -5.7277    6.1919 N   0  0  0  0  0  0  0  0  0  0  0  0
  -14.7363   -6.0410    5.0890 C   0  0  0  0  0  0  0  0  0  0  0  0
  -15.3071   -4.7601    4.4692 C   0  0  0  0  0  0  0  0  0  0  0  0
  -16.4955   -4.6959    4.1002 O   0  0  0  0  0  0  0  0  0  0  0  0
  -14.0435   -6.8801    4.0379 C   0  0  0  0  0  0  0  0  0  0  0  0
  -14.6025   -3.7538    4.3598 O   0  0  0  0  0  0  0  0  0  0  0  0
  -31.0852    7.0408    3.3042 C   0  0  0  0  0  0  0  0  0  0  0  0
  -30.4143    6.9598    4.5276 O   0  0  0  0  0  0  0  0  0  0  0  0
  -31.9616    5.7657    3.1408 C   0  0  0  0  0  0  0  0  0  0  0  0
  -31.2007    4.5724    3.2410 O   0  0  0  0  0  0  0  0  0  0  0  0
  -32.5857    5.9064    1.7241 C   0  0  0  0  0  0  0  0  0  0  0  0
  -33.6382    6.8421    1.8209 O   0  0  0  0  0  0  0  0  0  0  0  0
  1  3  1  0  0  0  0
  1 20  1  0  0  0  0
  1 21  1  0  0  0  0
  1 22  2  0  0  0  0
  2  3  1  0  0  0  0
  2  4  1  0  0  0  0
  4  5  1  0  0  0  0
  4  6  1  0  0  0  0
  6  7  1  0  0  0  0
  7 24  1  0  0  0  0
  6  8  1  0  0  0  0
  5  9  1  0  0  0  0
  8  9  1  0  0  0  0
 10 11  4  0  0  0  0
 10 15  4  0  0  0  0
 11 12  4  0  0  0  0
 12 13  4  0  0  0  0
 13 14  4  0  0  0  0
 13 19  4  0  0  0  0
 14 15  4  0  0  0  0
 14 17  4  0  0  0  0
 15 16  1  0  0  0  0
 17 18  4  0  0  0  0
 18 19  4  0  0  0  0
  9 19  1  0  0  0  0
  8 23  1  0  0  0  0
 24 25  1  0  0  0  0
 24 26  2  0  0  0  0
 24 28  1  0  0  0  0
 27 29  1  0  0  0  0
 27 28  1  0  0  0  0
 29 30  1  0  0  0  0
 29 31  1  0  0  0  0
 30 34  1  0  0  0  0
 31 32  1  0  0  0  0
 31 33  1  0  0  0  0
 32 44  1  0  0  0  0
 33 34  1  0  0  0  0
 33 43  1  0  0  0  0
 34 35  1  0  0  0  0
 35 36  4  0  0  0  0
 35 42  4  0  0  0  0
 36 37  2  0  0  0  0
 36 38  4  0  0  0  0
 38 39  4  0  0  0  0
 39 40  1  0  0  0  0
 39 41  4  0  0  0  0
 41 42  4  0  0  0  0
 44 45  1  0  0  0  0
 44 46  2  0  0  0  0
 44 48  1  0  0  0  0
 47 49  1  0  0  0  0
 47 48  1  0  0  0  0
 49 50  1  0  0  0  0
 49 51  1  0  0  0  0
 50 54  1  0  0  0  0
 51 52  1  0  0  0  0
 51 53  1  0  0  0  0
 52 64  1  0  0  0  0
 53 54  1  0  0  0  0
 53 63  1  0  0  0  0
 54 55  1  0  0  0  0
 55 56  4  0  0  0  0
 55 62  4  0  0  0  0
 56 57  2  0  0  0  0
 56 58  4  0  0  0  0
 58 59  4  0  0  0  0
 59 60  1  0  0  0  0
 59 61  4  0  0  0  0
 61 62  4  0  0  0  0
 64 66  1  0  0  0  0
 64 91  1  0  0  0  0
 65 67  1  0  0  0  0
 65 66  1  0  0  0  0
 67 68  1  0  0  0  0
 67 69  1  0  0  0  0
 69 70  1  0  0  0  0
 69 71  1  0  0  0  0
 71 72  1  0  0  0  0
 71 74  1  0  0  0  0
 68 72  1  0  0  0  0
 72 89  1  0  0  0  0
 73 83  4  0  0  0  0
 74 76  4  0  0  0  0
 74 82  4  0  0  0  0
 73 75  4  0  0  0  0
 75 77  4  0  0  0  0
 76 78  4  0  0  0  0
 77 79  4  0  0  0  0
 79 81  4  0  0  0  0
 78 80  4  0  0  0  0
 80 84  1  0  0  0  0
 81 83  4  0  0  0  0
 81 87  4  0  0  0  0
 80 82  4  0  0  0  0
 83 85  1  0  0  0  0
 84 86  1  0  0  0  0
 87 88  4  0  0  0  0
 79 89  4  0  0  0  0
 88 89  4  0  0  0  0
 64 90  2  0  0  0  0
 92104  1  0  0  0  0
 92108  2  0  0  0  0
 92110  1  0  0  0  0
 93105  1  0  0  0  0
 93111  2  0  0  0  0
 93117  1  0  0  0  0
 94 95  1  0  0  0  0
 92 95  1  0  0  0  0
 94 96  1  0  0  0  0
 96 97  1  0  0  0  0
 96 98  1  0  0  0  0
 98 99  1  0  0  0  0
 98100  1  0  0  0  0
100101  1  0  0  0  0
 97102  1  0  0  0  0
100102  1  0  0  0  0
102103  1  0  0  0  0
103106  4  0  0  0  0
103115  4  0  0  0  0
106107  2  0  0  0  0
106109  4  0  0  0  0
109112  4  0  0  0  0
 93110  1  0  0  0  0
112113  2  0  0  0  0
112114  4  0  0  0  0
114115  4  0  0  0  0
116117  1  0  0  0  0
116118  1  0  0  0  0
116125  1  0  0  0  0
118119  1  0  0  0  0
118120  1  0  0  0  0
120121  1  0  0  0  0
120122  1  0  0  0  0
122123  1  0  0  0  0
122124  1  0  0  0  0
124125  1  0  0  0  0
124126  1  0  0  0  0
126127  1  0  0  0  0
119128  1  0  0  0  0
128129  2  0  0  0  0
128130  1  0  0  0  0
121131  1  0  0  0  0
131132  1  0  0  0  0
131134  1  0  0  0  0
132133  2  0  0  0  0
135136  1  0  0  0  0
136137  1  0  0  0  0
136139  1  0  0  0  0
137138  4  0  0  0  0
137143  4  0  0  0  0
139140  1  0  0  0  0
140141  1  0  0  0  0
141142  1  0  0  0  0
144145  1  0  0  0  0
145146  1  0  0  0  0
145148  1  0  0  0  0
146147  2  0  0  0  0
146149  1  0  0  0  0
149150  1  0  0  0  0
150151  1  0  0  0  0
150153  1  0  0  0  0
151152  4  0  0  0  0
151154  4  0  0  0  0
155156  1  0  0  0  0
155157  1  0  0  0  0
157158  1  0  0  0  0
157159  1  0  0  0  0
159160  1  0  0  0  0
M  END
$$$$
