7ZTQ
  PyMOL2.5          3D                             0

  6  5  0  0  0  0  0  0  0  0999 V2000
  -26.3212  -38.6824  -12.8247 C   0  0  0  0  0  0  0  0  0  0  0  0
  -27.6833  -38.2539  -12.7009 O   0  0  0  0  0  0  0  0  0  0  0  0
  -26.0935  -39.8263  -13.8126 C   0  0  0  0  0  0  0  0  0  0  0  0
  -27.2973  -40.3685  -14.3457 O   0  0  0  0  0  0  0  0  0  0  0  0
  -25.2077  -39.4816  -14.9900 C   0  0  0  0  0  0  0  0  0  0  0  0
  -24.9163  -40.6120  -15.8098 O   0  0  0  0  0  0  0  0  0  0  0  0
  1  2  1  0  0  0  0
  1  3  1  0  0  0  0
  3  4  1  0  0  0  0
  3  5  1  0  0  0  0
  5  6  1  0  0  0  0
M  END
$$$$
