8BA6
  PyMOL2.5          3D                             0

100104  0  0  0  0  0  0  0  0999 V2000
   31.7505   38.0878    5.0298 N   0  0  0  0  0  0  0  0  0  0  0  0
   32.5193   37.6048    6.1935 C   0  0  0  0  0  0  0  0  0  0  0  0
   32.9409   39.7850   13.2902 C   0  0  0  0  0  0  0  0  0  0  0  0
   31.6288   39.4704   12.9670 C   0  0  0  0  0  0  0  0  0  0  0  0
   30.9992   40.1589   11.9152 C   0  0  0  0  0  0  0  0  0  0  0  0
   31.6947   41.1846   11.2492 C   0  0  0  0  0  0  0  0  0  0  0  0
   32.9666   41.4610   11.5938 C   0  0  0  0  0  0  0  0  0  0  0  0
   33.6099   40.7997   12.6359 C   0  0  0  0  0  0  0  0  0  0  0  0
   34.6781   39.4767   14.8586 C   0  0  0  0  0  0  0  0  0  0  0  0
   29.7080   38.1143   13.3869 C   0  0  0  0  0  0  0  0  0  0  0  0
   30.9698   41.9195   10.1227 C   0  0  0  0  0  0  0  0  0  0  0  0
   30.7814   41.0614    8.8838 C   0  0  0  0  0  0  0  0  0  0  0  0
   32.1291   40.7046    8.2440 C   0  0  0  0  0  0  0  0  0  0  0  0
   32.8191   41.8021    7.5385 C   0  0  0  0  0  0  0  0  0  0  0  0
   32.1647   42.4231    6.4759 C   0  0  0  0  0  0  0  0  0  0  0  0
   32.8326   43.4175    5.7434 C   0  0  0  0  0  0  0  0  0  0  0  0
   34.1742   43.7391    6.0504 C   0  0  0  0  0  0  0  0  0  0  0  0
   34.7908   43.0906    7.1205 C   0  0  0  0  0  0  0  0  0  0  0  0
   34.1055   42.1631    7.8387 C   0  0  0  0  0  0  0  0  0  0  0  0
   30.8215   43.9513    4.5649 C   0  0  0  0  0  0  0  0  0  0  0  0
   30.5115   42.7457    3.7422 C   0  0  0  0  0  0  0  0  0  0  0  0
   32.6759   38.5708    7.3033 C   0  0  0  0  0  0  0  0  0  0  0  0
   33.4681   38.4000    8.2011 O   0  0  0  0  0  0  0  0  0  0  0  0
   33.4384   39.0650   14.3368 O   0  0  0  0  0  0  0  0  0  0  0  0
   31.0772   38.4887   13.6712 O   0  0  0  0  0  0  0  0  0  0  0  0
   31.9075   39.6256    7.2451 O   0  0  0  0  0  0  0  0  0  0  0  0
   32.2387   44.1258    4.7247 O   0  0  0  0  0  0  0  0  0  0  0  0
   31.3866   42.0508    3.2168 O   0  0  0  0  0  0  0  0  0  0  0  0
   33.8901   37.1332    5.7283 C   0  0  0  0  0  0  0  0  0  0  0  0
   34.5976   38.2772    4.9319 C   0  0  0  0  0  0  0  0  0  0  0  0
   33.8069   38.6242    3.7528 C   0  0  0  0  0  0  0  0  0  0  0  0
   32.4265   39.0637    4.1366 C   0  0  0  0  0  0  0  0  0  0  0  0
   30.4385   37.7652    4.9285 C   0  0  0  0  0  0  0  0  0  0  0  0
   29.6479   38.1086    3.7052 C   0  0  0  0  0  0  0  0  0  0  0  0
   29.4880   40.2550    2.4354 C   0  0  0  0  0  0  0  0  0  0  0  0
   28.3441   37.2477    3.5773 C   0  0  0  0  0  0  0  0  0  0  0  0
   28.6779   35.7617    3.3840 C   0  0  0  0  0  0  0  0  0  0  0  0
   27.3978   34.9280    3.3511 C   0  0  0  0  0  0  0  0  0  0  0  0
   26.4494   35.4040    2.2800 C   0  0  0  0  0  0  0  0  0  0  0  0
   26.1511   36.8388    2.4492 C   0  0  0  0  0  0  0  0  0  0  0  0
   27.4267   37.7003    2.4462 C   0  0  0  0  0  0  0  0  0  0  0  0
   28.8742   41.6147    2.3753 C   0  0  0  0  0  0  0  0  0  0  0  0
   28.1608   43.3689    4.0639 C   0  0  0  0  0  0  0  0  0  0  0  0
   29.3643   42.3186    1.1205 C   0  0  0  0  0  0  0  0  0  0  0  0
   27.3684   41.3516    2.2509 C   0  0  0  0  0  0  0  0  0  0  0  0
   29.3508   39.5484    3.6304 N   0  0  0  0  0  0  0  0  0  0  0  0
   29.2060   42.4828    3.5201 N   0  0  0  0  0  0  0  0  0  0  0  0
   29.8800   37.0997    5.8317 O   0  0  0  0  0  0  0  0  0  0  0  0
   30.0544   39.7161    1.4871 O   0  0  0  0  0  0  0  0  0  0  0  0
   29.0511   38.9661   13.5526 H   0  0  0  0  0  0  0  0  0  0  0  0
   29.4146   37.3049   14.0548 H   0  0  0  0  0  0  0  0  0  0  0  0
   29.6232   37.7715   12.3561 H   0  0  0  0  0  0  0  0  0  0  0  0
   29.9750   39.9369   11.6221 H   0  0  0  0  0  0  0  0  0  0  0  0
   34.8836   38.9133   15.7784 H   0  0  0  0  0  0  0  0  0  0  0  0
   34.6541   40.5537   15.0897 H   0  0  0  0  0  0  0  0  0  0  0  0
   35.4705   39.2729   14.1256 H   0  0  0  0  0  0  0  0  0  0  0  0
   34.6361   41.0667   12.8830 H   0  0  0  0  0  0  0  0  0  0  0  0
   33.4947   42.2582   11.0719 H   0  0  0  0  0  0  0  0  0  0  0  0
   31.5373   42.8108    9.8569 H   0  0  0  0  0  0  0  0  0  0  0  0
   29.9885   42.2248   10.4825 H   0  0  0  0  0  0  0  0  0  0  0  0
   30.1506   41.5907    8.1724 H   0  0  0  0  0  0  0  0  0  0  0  0
   30.2851   40.1436    9.1801 H   0  0  0  0  0  0  0  0  0  0  0  0
   32.7858   40.3439    9.0297 H   0  0  0  0  0  0  0  0  0  0  0  0
   32.0218   36.7271    6.6058 H   0  0  0  0  0  0  0  0  0  0  0  0
   34.5715   37.0206    6.4920 H   0  0  0  0  0  0  0  0  0  0  0  0
   33.8220   36.2329    5.1231 H   0  0  0  0  0  0  0  0  0  0  0  0
   34.7055   39.1589    5.5620 H   0  0  0  0  0  0  0  0  0  0  0  0
   35.5778   37.9474    4.6220 H   0  0  0  0  0  0  0  0  0  0  0  0
   34.3041   39.4315    3.2143 H   0  0  0  0  0  0  0  0  0  0  0  0
   33.7370   37.7514    3.1021 H   0  0  0  0  0  0  0  0  0  0  0  0
   32.4932   40.0224    4.6488 H   0  0  0  0  0  0  0  0  0  0  0  0
   31.8770   39.1964    3.2198 H   0  0  0  0  0  0  0  0  0  0  0  0
   30.2619   37.8276    2.8519 H   0  0  0  0  0  0  0  0  0  0  0  0
   27.7778   37.3464    4.5035 H   0  0  0  0  0  0  0  0  0  0  0  0
   29.1759   35.3898    4.1989 H   0  0  0  0  0  0  0  0  0  0  0  0
   29.1106   35.5153    2.4710 H   0  0  0  0  0  0  0  0  0  0  0  0
   27.6558   33.8866    3.1565 H   0  0  0  0  0  0  0  0  0  0  0  0
   26.9032   34.9979    4.3185 H   0  0  0  0  0  0  0  0  0  0  0  0
   26.8907   35.2313    1.2982 H   0  0  0  0  0  0  0  0  0  0  0  0
   25.5199   34.8405    2.3551 H   0  0  0  0  0  0  0  0  0  0  0  0
   25.5032   37.1637    1.6351 H   0  0  0  0  0  0  0  0  0  0  0  0
   25.6303   36.9821    3.3961 H   0  0  0  0  0  0  0  0  0  0  0  0
   27.5007   38.6074    1.9380 H   0  0  0  0  0  0  0  0  0  0  0  0
   27.9405   37.1568    1.6527 H   0  0  0  0  0  0  0  0  0  0  0  0
   28.7928   39.9463    4.3593 H   0  0  0  0  0  0  0  0  0  0  0  0
   30.4132   42.0900    0.9213 H   0  0  0  0  0  0  0  0  0  0  0  0
   29.2556   43.3962    1.2423 H   0  0  0  0  0  0  0  0  0  0  0  0
   28.7661   41.9973    0.2658 H   0  0  0  0  0  0  0  0  0  0  0  0
   26.8478   42.2827    2.0118 H   0  0  0  0  0  0  0  0  0  0  0  0
   26.9809   40.9371    3.1865 H   0  0  0  0  0  0  0  0  0  0  0  0
   27.1898   40.6451    1.4375 H   0  0  0  0  0  0  0  0  0  0  0  0
   27.7304   43.9792    3.2679 H   0  0  0  0  0  0  0  0  0  0  0  0
   28.5381   44.0388    4.8275 H   0  0  0  0  0  0  0  0  0  0  0  0
   27.3618   42.7821    4.5208 H   0  0  0  0  0  0  0  0  0  0  0  0
   30.4681   43.9396    5.5421 H   0  0  0  0  0  0  0  0  0  0  0  0
   30.5784   44.8298    4.0730 H   0  0  0  0  0  0  0  0  0  0  0  0
   31.1438   42.1284    6.2557 H   0  0  0  0  0  0  0  0  0  0  0  0
   34.6268   41.6234    8.6242 H   0  0  0  0  0  0  0  0  0  0  0  0
   35.8143   43.3450    7.3956 H   0  0  0  0  0  0  0  0  0  0  0  0
   34.6838   44.5415    5.5208 H   0  0  0  0  0  0  0  0  0  0  0  0
  1 33  1  0  0  0  0
  1  2  1  0  0  0  0
  2 29  1  0  0  0  0
  2 64  1  0  0  0  0
  3  8  4  0  0  0  0
  3 24  1  0  0  0  0
  3  4  4  0  0  0  0
  4  5  4  0  0  0  0
  5  6  4  0  0  0  0
  5 53  1  0  0  0  0
  6 11  1  0  0  0  0
  6  7  4  0  0  0  0
  7 58  1  0  0  0  0
  7  8  4  0  0  0  0
  8 57  1  0  0  0  0
  9 54  1  0  0  0  0
  9 55  1  0  0  0  0
  9 56  1  0  0  0  0
 10 25  1  0  0  0  0
 10 50  1  0  0  0  0
 10 51  1  0  0  0  0
 10 52  1  0  0  0  0
 11 12  1  0  0  0  0
 11 59  1  0  0  0  0
 11 60  1  0  0  0  0
 12 13  1  0  0  0  0
 12 61  1  0  0  0  0
 12 62  1  0  0  0  0
 13 14  1  0  0  0  0
 13 26  1  0  0  0  0
 13 63  1  0  0  0  0
 14 19  4  0  0  0  0
 14 15  4  0  0  0  0
 15 97  1  0  0  0  0
 15 16  4  0  0  0  0
 16 17  4  0  0  0  0
 17100  1  0  0  0  0
 17 18  4  0  0  0  0
 18 99  1  0  0  0  0
 18 19  4  0  0  0  0
 19 98  1  0  0  0  0
 20 27  1  0  0  0  0
 20 95  1  0  0  0  0
 20 96  1  0  0  0  0
 20 21  1  0  0  0  0
 21 28  2  0  0  0  0
  2 22  1  0  0  0  0
 22 23  2  0  0  0  0
  9 24  1  0  0  0  0
  4 25  1  0  0  0  0
 22 26  1  0  0  0  0
 16 27  1  0  0  0  0
 29 30  1  0  0  0  0
 29 65  1  0  0  0  0
 29 66  1  0  0  0  0
 30 31  1  0  0  0  0
 30 67  1  0  0  0  0
 30 68  1  0  0  0  0
 31 32  1  0  0  0  0
 31 69  1  0  0  0  0
 31 70  1  0  0  0  0
  1 32  1  0  0  0  0
 32 71  1  0  0  0  0
 32 72  1  0  0  0  0
 33 34  1  0  0  0  0
 33 48  2  0  0  0  0
 34 36  1  0  0  0  0
 34 46  1  0  0  0  0
 34 73  1  0  0  0  0
 35 42  1  0  0  0  0
 35 49  2  0  0  0  0
 36 37  1  0  0  0  0
 36 41  1  0  0  0  0
 36 74  1  0  0  0  0
 37 38  1  0  0  0  0
 37 75  1  0  0  0  0
 37 76  1  0  0  0  0
 38 39  1  0  0  0  0
 38 77  1  0  0  0  0
 38 78  1  0  0  0  0
 39 40  1  0  0  0  0
 39 79  1  0  0  0  0
 39 80  1  0  0  0  0
 40 41  1  0  0  0  0
 40 81  1  0  0  0  0
 40 82  1  0  0  0  0
 41 83  1  0  0  0  0
 41 84  1  0  0  0  0
 42 44  1  0  0  0  0
 42 45  1  0  0  0  0
 42 47  1  0  0  0  0
 43 92  1  0  0  0  0
 43 93  1  0  0  0  0
 43 94  1  0  0  0  0
 44 86  1  0  0  0  0
 44 87  1  0  0  0  0
 44 88  1  0  0  0  0
 45 89  1  0  0  0  0
 45 90  1  0  0  0  0
 45 91  1  0  0  0  0
 35 46  1  0  0  0  0
 46 85  1  0  0  0  0
 21 47  1  0  0  0  0
 43 47  1  0  0  0  0
M  END
$$$$
