8BAJ
  PyMOL2.5          3D                             0

 54 57  0  0  0  0  0  0  0  0999 V2000
  -31.5130  -21.2743   21.4726 N   0  0  0  0  0  0  0  0  0  0  0  0
  -30.8083  -22.5635   21.6859 C   0  0  0  0  0  0  0  0  0  0  0  0
  -31.7413  -20.4102   22.6365 C   0  0  0  0  0  0  0  0  0  0  0  0
  -32.6624  -21.0167   23.7072 C   0  0  0  0  0  0  0  0  0  0  0  0
  -33.4406  -22.2507   23.1359 C   0  0  0  0  0  0  0  0  0  0  0  0
  -29.5704  -21.2893   23.4595 C   0  0  0  0  0  0  0  0  0  0  0  0
  -30.3647  -20.0179   23.2067 C   0  0  0  0  0  0  0  0  0  0  0  0
  -33.4888  -20.5249   19.7721 C   0  0  0  0  0  0  0  0  0  0  0  0
  -34.1290  -19.2748   19.8846 C   0  0  0  0  0  0  0  0  0  0  0  0
  -35.5004  -19.1986   19.7450 C   0  0  0  0  0  0  0  0  0  0  0  0
  -36.2545  -20.3290   19.3897 C   0  0  0  0  0  0  0  0  0  0  0  0
  -35.5926  -21.5630   19.2950 C   0  0  0  0  0  0  0  0  0  0  0  0
  -34.2125  -21.6649   19.4611 C   0  0  0  0  0  0  0  0  0  0  0  0
  -33.6403  -19.9517   24.2224 C   0  0  0  0  0  0  0  0  0  0  0  0
  -33.1255  -24.5900   23.8703 C   0  0  0  0  0  0  0  0  0  0  0  0
  -34.4913  -24.9902   23.3919 C   0  0  0  0  0  0  0  0  0  0  0  0
  -31.4248  -23.5953   22.4858 C   0  0  0  0  0  0  0  0  0  0  0  0
  -30.7480  -24.6388   22.6728 O   0  0  0  0  0  0  0  0  0  0  0  0
  -32.6056  -23.4361   23.1023 N   0  0  0  0  0  0  0  0  0  0  0  0
  -31.2151  -19.2784   19.9649 O   0  0  0  0  0  0  0  0  0  0  0  0
  -31.2445  -21.5459   18.9966 O   0  0  0  0  0  0  0  0  0  0  0  0
  -34.5454  -19.6461   23.2185 O   0  0  0  0  0  0  0  0  0  0  0  0
  -31.7566  -20.6397   20.0024 S   0  0  0  0  0  0  0  0  0  0  0  0
  -29.4138  -22.1375   22.1614 C   0  0  0  0  0  0  0  0  0  0  0  0
  -35.9307  -25.4912   21.5842 C   0  0  0  0  0  0  0  0  0  0  0  0
  -36.9736  -25.6957   22.4619 C   0  0  0  0  0  0  0  0  0  0  0  0
  -36.7879  -25.5701   23.8306 C   0  0  0  0  0  0  0  0  0  0  0  0
  -35.5297  -25.1939   24.2930 C   0  0  0  0  0  0  0  0  0  0  0  0
  -34.7119  -25.0862   22.0596 N   0  0  0  0  0  0  0  0  0  0  0  0
  -36.2987  -17.7457   19.8322 Cl  0  0  0  0  0  0  0  0  0  0  0  0
  -36.4709  -22.9681   18.9180 Cl  0  0  0  0  0  0  0  0  0  0  0  0
  -33.5572  -18.3856   20.1270 H   0  0  0  0  0  0  0  0  0  0  0  0
  -37.3353  -20.2634   19.2600 H   0  0  0  0  0  0  0  0  0  0  0  0
  -33.7175  -22.6191   19.3725 H   0  0  0  0  0  0  0  0  0  0  0  0
  -30.6658  -23.0184   20.7079 H   0  0  0  0  0  0  0  0  0  0  0  0
  -28.9370  -21.5343   21.3895 H   0  0  0  0  0  0  0  0  0  0  0  0
  -28.7998  -23.0144   22.3664 H   0  0  0  0  0  0  0  0  0  0  0  0
  -28.5850  -21.0061   23.8042 H   0  0  0  0  0  0  0  0  0  0  0  0
  -30.0475  -21.8845   24.2327 H   0  0  0  0  0  0  0  0  0  0  0  0
  -30.4944  -19.4741   24.1423 H   0  0  0  0  0  0  0  0  0  0  0  0
  -29.8339  -19.3908   22.4888 H   0  0  0  0  0  0  0  0  0  0  0  0
  -32.2056  -19.4932   22.2752 H   0  0  0  0  0  0  0  0  0  0  0  0
  -32.0719  -21.3513   24.5560 H   0  0  0  0  0  0  0  0  0  0  0  0
  -33.0883  -19.0542   24.5012 H   0  0  0  0  0  0  0  0  0  0  0  0
  -34.1742  -20.3361   25.0907 H   0  0  0  0  0  0  0  0  0  0  0  0
  -35.0645  -20.4551   22.9677 H   0  0  0  0  0  0  0  0  0  0  0  0
  -33.8059  -22.0371   22.1383 H   0  0  0  0  0  0  0  0  0  0  0  0
  -34.2960  -22.4260   23.7852 H   0  0  0  0  0  0  0  0  0  0  0  0
  -33.1964  -24.3315   24.9267 H   0  0  0  0  0  0  0  0  0  0  0  0
  -32.4805  -25.4608   23.7818 H   0  0  0  0  0  0  0  0  0  0  0  0
  -36.0953  -25.5796   20.5109 H   0  0  0  0  0  0  0  0  0  0  0  0
  -37.9521  -25.9845   22.0761 H   0  0  0  0  0  0  0  0  0  0  0  0
  -37.6082  -25.7466   24.5254 H   0  0  0  0  0  0  0  0  0  0  0  0
  -35.3535  -25.0904   25.3642 H   0  0  0  0  0  0  0  0  0  0  0  0
  1  2  1  0  0  0  0
  1  3  1  0  0  0  0
  2 17  1  0  0  0  0
  2 24  1  0  0  0  0
  2 35  1  0  0  0  0
  3  4  1  0  0  0  0
  3 42  1  0  0  0  0
  4  5  1  0  0  0  0
  4 14  1  0  0  0  0
  4 43  1  0  0  0  0
  5 19  1  0  0  0  0
  5 47  1  0  0  0  0
  5 48  1  0  0  0  0
  6  7  1  0  0  0  0
  6 38  1  0  0  0  0
  6 39  1  0  0  0  0
  3  7  1  0  0  0  0
  7 40  1  0  0  0  0
  7 41  1  0  0  0  0
  8 23  1  0  0  0  0
  8  9  4  0  0  0  0
  9 10  4  0  0  0  0
  9 32  1  0  0  0  0
 10 11  4  0  0  0  0
 10 30  1  0  0  0  0
 11 12  4  0  0  0  0
 11 33  1  0  0  0  0
 12 13  4  0  0  0  0
 12 31  1  0  0  0  0
  8 13  4  0  0  0  0
 13 34  1  0  0  0  0
 14 22  1  0  0  0  0
 14 44  1  0  0  0  0
 14 45  1  0  0  0  0
 15 16  1  0  0  0  0
 15 49  1  0  0  0  0
 15 50  1  0  0  0  0
 16 28  4  0  0  0  0
 16 29  4  0  0  0  0
 17 18  2  0  0  0  0
 17 19  1  0  0  0  0
 15 19  1  0  0  0  0
 22 46  1  0  0  0  0
  1 23  1  0  0  0  0
 20 23  2  0  0  0  0
 21 23  2  0  0  0  0
  6 24  1  0  0  0  0
 24 36  1  0  0  0  0
 24 37  1  0  0  0  0
 25 26  4  0  0  0  0
 25 51  1  0  0  0  0
 26 27  4  0  0  0  0
 26 52  1  0  0  0  0
 27 28  4  0  0  0  0
 27 53  1  0  0  0  0
 28 54  1  0  0  0  0
 25 29  4  0  0  0  0
M  END
$$$$
