8DUB
  PyMOL2.5          3D                             0

 70 82  0  0  0  0  0  0  0  0999 V2000
   49.9838   -8.2628    9.5944 C   0  0  0  0  0  0  0  0  0  0  0  0
   46.3053   -9.0010    9.9001 N   0  0  0  0  0  0  0  0  0  0  0  0
   45.1472   -7.6969    8.5123 O   0  0  0  0  0  0  0  0  0  0  0  0
   51.0394   -8.2323   10.3244 C   0  0  0  0  0  0  0  0  0  0  0  0
   50.7870  -13.2626    3.3039 N   0  0  0  0  0  0  0  0  0  0  0  0
   52.1706   -8.6751   12.4892 O   0  0  0  0  0  0  0  0  0  0  0  0
   51.0374   -8.7189   11.7460 C   0  0  0  0  0  0  0  0  0  0  0  0
   48.4943  -12.7906    5.1451 O   0  0  0  0  0  0  0  0  0  0  0  0
   49.9244   -9.2188   12.2409 C   0  0  0  0  0  0  0  0  0  0  0  0
   48.6664   -9.2789   11.3738 C   0  0  0  0  0  0  0  0  0  0  0  0
   48.6864   -8.8171   10.1298 C   0  0  0  0  0  0  0  0  0  0  0  0
   47.4235   -9.8154   12.0282 C   0  0  0  0  0  0  0  0  0  0  0  0
   46.2385   -9.8287   11.0533 C   0  0  0  0  0  0  0  0  0  0  0  0
   47.5032   -8.8206    9.1718 C   0  0  0  0  0  0  0  0  0  0  0  0
   45.1226   -8.3754    9.4227 C   0  0  0  0  0  0  0  0  0  0  0  0
   43.8481   -8.3813   10.2468 C   0  0  0  0  0  0  0  0  0  0  0  0
   42.6787   -8.7991    9.9021 C   0  0  0  0  0  0  0  0  0  0  0  0
   41.5710   -8.6137   10.8954 C   0  0  0  0  0  0  0  0  0  0  0  0
   41.7388   -8.0002   12.0088 C   0  0  0  0  0  0  0  0  0  0  0  0
   43.0814   -7.4589   12.3756 C   0  0  0  0  0  0  0  0  0  0  0  0
   44.0667   -7.6502   11.5419 C   0  0  0  0  0  0  0  0  0  0  0  0
   46.2642  -11.3116   10.6834 C   0  0  0  0  0  0  0  0  0  0  0  0
   45.1316  -10.7998   11.4737 C   0  0  0  0  0  0  0  0  0  0  0  0
   47.7083   -9.7761    8.0511 C   0  0  0  0  0  0  0  0  0  0  0  0
   48.2878  -10.8837    8.3607 C   0  0  0  0  0  0  0  0  0  0  0  0
   48.5556  -11.9167    7.2991 C   0  0  0  0  0  0  0  0  0  0  0  0
   48.2219  -11.7259    6.0685 C   0  0  0  0  0  0  0  0  0  0  0  0
   47.5497  -10.4052    5.6862 C   0  0  0  0  0  0  0  0  0  0  0  0
   47.2943   -9.5061    6.6254 C   0  0  0  0  0  0  0  0  0  0  0  0
   48.7279  -12.4225    3.7741 C   0  0  0  0  0  0  0  0  0  0  0  0
   49.4805  -13.5184    3.0436 C   0  0  0  0  0  0  0  0  0  0  0  0
   50.8486  -12.1622    4.1443 C   0  0  0  0  0  0  0  0  0  0  0  0
   49.6129  -11.3576    3.8106 C   0  0  0  0  0  0  0  0  0  0  0  0
   51.1294  -14.1691    3.9495 C   0  0  0  0  0  0  0  0  0  0  0  0
   52.5121  -14.1128    4.6395 C   0  0  0  0  0  0  0  0  0  0  0  0
   27.9030  -36.5436   16.6943 C   0  0  0  0  0  0  0  0  0  0  0  0
   30.2822  -35.2573   14.0674 N   0  0  0  0  0  0  0  0  0  0  0  0
   29.5346  -36.0753   12.1467 O   0  0  0  0  0  0  0  0  0  0  0  0
   27.9236  -36.9880   17.9091 C   0  0  0  0  0  0  0  0  0  0  0  0
   23.2874  -29.3224   15.5837 N   0  0  0  0  0  0  0  0  0  0  0  0
   29.2477  -37.3636   20.0035 O   0  0  0  0  0  0  0  0  0  0  0  0
   29.1971  -36.9189   18.7299 C   0  0  0  0  0  0  0  0  0  0  0  0
   25.8526  -30.6065   14.5303 O   0  0  0  0  0  0  0  0  0  0  0  0
   30.2723  -36.4051   18.1591 C   0  0  0  0  0  0  0  0  0  0  0  0
   30.2456  -35.9007   16.7338 C   0  0  0  0  0  0  0  0  0  0  0  0
   29.1449  -35.9617   16.0448 C   0  0  0  0  0  0  0  0  0  0  0  0
   31.5458  -35.3505   16.1407 C   0  0  0  0  0  0  0  0  0  0  0  0
   31.3762  -34.6974   14.8047 C   0  0  0  0  0  0  0  0  0  0  0  0
   28.9983  -35.4278   14.6457 C   0  0  0  0  0  0  0  0  0  0  0  0
   30.4364  -35.6207   12.6954 C   0  0  0  0  0  0  0  0  0  0  0  0
   31.7841  -35.6581   11.9924 C   0  0  0  0  0  0  0  0  0  0  0  0
   32.0722  -35.0170   10.9273 C   0  0  0  0  0  0  0  0  0  0  0  0
   33.4502  -35.2681   10.3441 C   0  0  0  0  0  0  0  0  0  0  0  0
   34.2859  -36.1184   10.8513 C   0  0  0  0  0  0  0  0  0  0  0  0
   33.9030  -36.8981   12.0714 C   0  0  0  0  0  0  0  0  0  0  0  0
   32.7419  -36.6477   12.6010 C   0  0  0  0  0  0  0  0  0  0  0  0
   31.4246  -33.1634   15.0715 C   0  0  0  0  0  0  0  0  0  0  0  0
   32.5499  -33.7853   14.3507 C   0  0  0  0  0  0  0  0  0  0  0  0
   28.1603  -34.1713   14.5797 C   0  0  0  0  0  0  0  0  0  0  0  0
   28.2483  -33.3190   15.5263 C   0  0  0  0  0  0  0  0  0  0  0  0
   27.4062  -32.0643   15.4453 C   0  0  0  0  0  0  0  0  0  0  0  0
   26.5632  -31.8207   14.4881 C   0  0  0  0  0  0  0  0  0  0  0  0
   26.4445  -32.8520   13.3915 C   0  0  0  0  0  0  0  0  0  0  0  0
   27.2041  -33.9253   13.4322 C   0  0  0  0  0  0  0  0  0  0  0  0
   24.5039  -30.6045   14.1935 C   0  0  0  0  0  0  0  0  0  0  0  0
   23.9057  -29.2504   14.3733 C   0  0  0  0  0  0  0  0  0  0  0  0
   22.8889  -30.6070   15.7450 C   0  0  0  0  0  0  0  0  0  0  0  0
   24.0382  -31.3860   15.2400 C   0  0  0  0  0  0  0  0  0  0  0  0
   23.9192  -28.9763   16.5637 C   0  0  0  0  0  0  0  0  0  0  0  0
   23.6824  -29.5857   18.0071 C   0  0  0  0  0  0  0  0  0  0  0  0
  1  4  4  0  0  0  0
  2 13  1  0  0  0  0
  2 14  1  0  0  0  0
  2 15  1  0  0  0  0
  4  7  4  0  0  0  0
  6  7  1  0  0  0  0
  7  9  4  0  0  0  0
  9 10  4  0  0  0  0
 10 11  4  0  0  0  0
 10 12  1  0  0  0  0
  1 11  4  0  0  0  0
 11 14  1  0  0  0  0
 12 13  1  0  0  0  0
 13 22  1  0  0  0  0
 13 23  1  0  0  0  0
  3 15  2  0  0  0  0
 15 16  1  0  0  0  0
 16 17  4  0  0  0  0
 16 21  4  0  0  0  0
 17 18  4  0  0  0  0
 18 19  4  0  0  0  0
 19 20  4  0  0  0  0
 20 21  4  0  0  0  0
 22 23  1  0  0  0  0
 14 24  1  0  0  0  0
 24 25  4  0  0  0  0
 25 26  4  0  0  0  0
 26 27  4  0  0  0  0
  8 27  1  0  0  0  0
 27 28  4  0  0  0  0
 24 29  4  0  0  0  0
 28 29  4  0  0  0  0
  8 30  1  0  0  0  0
  5 31  1  0  0  0  0
 30 31  1  0  0  0  0
 31 34  1  0  0  0  0
  5 32  1  0  0  0  0
 32 34  1  0  0  0  0
 30 33  1  0  0  0  0
 32 33  1  0  0  0  0
  5 34  1  0  0  0  0
 34 35  1  0  0  0  0
 36 39  4  0  0  0  0
 37 48  1  0  0  0  0
 37 49  1  0  0  0  0
 37 50  1  0  0  0  0
 39 42  4  0  0  0  0
 41 42  1  0  0  0  0
 42 44  4  0  0  0  0
 44 45  4  0  0  0  0
 45 46  4  0  0  0  0
 45 47  1  0  0  0  0
 36 46  4  0  0  0  0
 46 49  1  0  0  0  0
 47 48  1  0  0  0  0
 48 57  1  0  0  0  0
 48 58  1  0  0  0  0
 38 50  2  0  0  0  0
 50 51  1  0  0  0  0
 51 52  4  0  0  0  0
 51 56  4  0  0  0  0
 52 53  4  0  0  0  0
 53 54  4  0  0  0  0
 54 55  4  0  0  0  0
 55 56  4  0  0  0  0
 57 58  1  0  0  0  0
 49 59  1  0  0  0  0
 59 60  4  0  0  0  0
 60 61  4  0  0  0  0
 61 62  4  0  0  0  0
 43 62  1  0  0  0  0
 62 63  4  0  0  0  0
 59 64  4  0  0  0  0
 63 64  4  0  0  0  0
 43 65  1  0  0  0  0
 40 66  1  0  0  0  0
 65 66  1  0  0  0  0
 40 67  1  0  0  0  0
 65 68  1  0  0  0  0
 67 68  1  0  0  0  0
 40 69  1  0  0  0  0
 69 70  1  0  0  0  0
M  END
$$$$
