8DUH
  PyMOL2.5          3D                             0

 72 83  0  0  0  0  0  0  0  0999 V2000
   49.4702   28.3797   -2.5666 C   0  0  0  0  0  0  0  0  0  0  0  0
   46.0590   28.1592   -1.0293 N   0  0  0  0  0  0  0  0  0  0  0  0
   44.8151   29.5792   -2.1089 O   0  0  0  0  0  0  0  0  0  0  0  0
   50.7905   28.3568   -2.1869 C   0  0  0  0  0  0  0  0  0  0  0  0
   47.6276   22.7338   -8.3546 N   0  0  0  0  0  0  0  0  0  0  0  0
   52.4386   28.0645   -0.5003 O   0  0  0  0  0  0  0  0  0  0  0  0
   51.1376   28.0918   -0.8831 C   0  0  0  0  0  0  0  0  0  0  0  0
   46.2760   23.9496   -5.9329 O   0  0  0  0  0  0  0  0  0  0  0  0
   50.1582   27.8337    0.0571 C   0  0  0  0  0  0  0  0  0  0  0  0
   48.8062   27.8527   -0.3395 C   0  0  0  0  0  0  0  0  0  0  0  0
   48.4505   28.1215   -1.6233 C   0  0  0  0  0  0  0  0  0  0  0  0
   47.7744   27.5726    0.7447 C   0  0  0  0  0  0  0  0  0  0  0  0
   46.4013   27.3032    0.0840 C   0  0  0  0  0  0  0  0  0  0  0  0
   47.0087   28.1139   -2.1066 C   0  0  0  0  0  0  0  0  0  0  0  0
   44.8824   28.9906   -1.1671 C   0  0  0  0  0  0  0  0  0  0  0  0
   43.8614   29.2685   -0.0409 C   0  0  0  0  0  0  0  0  0  0  0  0
   44.4433   29.8990    1.0472 C   0  0  0  0  0  0  0  0  0  0  0  0
   43.6961   30.2781    2.1311 C   0  0  0  0  0  0  0  0  0  0  0  0
   42.3569   30.0062    2.1204 C   0  0  0  0  0  0  0  0  0  0  0  0
   41.7781   29.3952    1.0116 C   0  0  0  0  0  0  0  0  0  0  0  0
   42.5144   29.0475   -0.1071 C   0  0  0  0  0  0  0  0  0  0  0  0
   45.3261   26.9754    1.0955 C   0  0  0  0  0  0  0  0  0  0  0  0
   45.9421   25.8873    0.2621 C   0  0  0  0  0  0  0  0  0  0  0  0
   46.7766   27.0244   -3.1447 C   0  0  0  0  0  0  0  0  0  0  0  0
   46.1380   27.2779   -4.3372 C   0  0  0  0  0  0  0  0  0  0  0  0
   45.9644   26.2810   -5.2857 C   0  0  0  0  0  0  0  0  0  0  0  0
   46.4337   25.0035   -5.0292 C   0  0  0  0  0  0  0  0  0  0  0  0
   47.0546   24.7627   -3.8377 C   0  0  0  0  0  0  0  0  0  0  0  0
   47.2391   25.7528   -2.9057 C   0  0  0  0  0  0  0  0  0  0  0  0
   46.4037   24.2982   -7.2732 C   0  0  0  0  0  0  0  0  0  0  0  0
   46.5659   23.0032   -8.1030 C   0  0  0  0  0  0  0  0  0  0  0  0
   47.5597   21.9516   -9.7143 C   0  0  0  0  0  0  0  0  0  0  0  0
   47.8243   20.6838   -9.5327 C   0  0  0  0  0  0  0  0  0  0  0  0
   48.5489   20.6286   -8.2835 C   0  0  0  0  0  0  0  0  0  0  0  0
   48.0634   21.9149   -7.5296 C   0  0  0  0  0  0  0  0  0  0  0  0
   49.3263   22.4493   -6.7630 C   0  0  0  0  0  0  0  0  0  0  0  0
   28.5439    4.2205   14.6999 C   0  0  0  0  0  0  0  0  0  0  0  0
   29.9516    4.9004   11.2915 N   0  0  0  0  0  0  0  0  0  0  0  0
   28.4583    4.1169    9.8622 O   0  0  0  0  0  0  0  0  0  0  0  0
   28.9844    3.8058   15.9239 C   0  0  0  0  0  0  0  0  0  0  0  0
   24.5893   11.6754   14.3000 N   0  0  0  0  0  0  0  0  0  0  0  0
   30.8449    3.3362   17.4198 O   0  0  0  0  0  0  0  0  0  0  0  0
   30.3363    3.7067   16.1941 C   0  0  0  0  0  0  0  0  0  0  0  0
   26.4405   10.0536   12.8550 O   0  0  0  0  0  0  0  0  0  0  0  0
   31.2269    3.9936   15.1936 C   0  0  0  0  0  0  0  0  0  0  0  0
   30.7948    4.4114   13.9308 C   0  0  0  0  0  0  0  0  0  0  0  0
   29.4756    4.5148   13.6694 C   0  0  0  0  0  0  0  0  0  0  0  0
   31.8860    4.6983   12.9170 C   0  0  0  0  0  0  0  0  0  0  0  0
   31.2876    5.3953   11.6948 C   0  0  0  0  0  0  0  0  0  0  0  0
   28.9413    4.9684   12.3154 C   0  0  0  0  0  0  0  0  0  0  0  0
   29.5502    4.4289    9.9934 C   0  0  0  0  0  0  0  0  0  0  0  0
   30.5468    4.1534    8.8576 C   0  0  0  0  0  0  0  0  0  0  0  0
   31.4283    3.1676    9.2070 C   0  0  0  0  0  0  0  0  0  0  0  0
   32.3632    2.7013    8.3079 C   0  0  0  0  0  0  0  0  0  0  0  0
   32.3931    3.2734    7.0613 C   0  0  0  0  0  0  0  0  0  0  0  0
   31.5061    4.2761    6.7119 C   0  0  0  0  0  0  0  0  0  0  0  0
   30.5427    4.7130    7.6036 C   0  0  0  0  0  0  0  0  0  0  0  0
   32.3401    5.7877   10.6703 C   0  0  0  0  0  0  0  0  0  0  0  0
   31.7024    6.8431   11.5475 C   0  0  0  0  0  0  0  0  0  0  0  0
   28.2898    6.3340   12.4526 C   0  0  0  0  0  0  0  0  0  0  0  0
   27.0965    6.5825   11.8408 C   0  0  0  0  0  0  0  0  0  0  0  0
   26.4824    7.8113   11.9735 C   0  0  0  0  0  0  0  0  0  0  0  0
   27.0550    8.8009   12.7261 C   0  0  0  0  0  0  0  0  0  0  0  0
   28.2781    8.5412   13.3134 C   0  0  0  0  0  0  0  0  0  0  0  0
   28.8839    7.3094   13.2000 C   0  0  0  0  0  0  0  0  0  0  0  0
   25.0691   10.1966   12.6904 C   0  0  0  0  0  0  0  0  0  0  0  0
   24.3548   10.6186   14.0074 C   0  0  0  0  0  0  0  0  0  0  0  0
   23.3160   12.5688   14.4841 C   0  0  0  0  0  0  0  0  0  0  0  0
   23.7106   13.5476   15.2819 C   0  0  0  0  0  0  0  0  0  0  0  0
   24.7553   12.9947   16.1462 C   0  0  0  0  0  0  0  0  0  0  0  0
   25.3974   11.8992   15.2407 C   0  0  0  0  0  0  0  0  0  0  0  0
   25.8917   10.7111   16.1387 C   0  0  0  0  0  0  0  0  0  0  0  0
  1  4  4  0  0  0  0
  2 13  1  0  0  0  0
  2 14  1  0  0  0  0
  2 15  1  0  0  0  0
  4  7  4  0  0  0  0
  6  7  1  0  0  0  0
  7  9  4  0  0  0  0
  9 10  4  0  0  0  0
 10 11  4  0  0  0  0
 10 12  1  0  0  0  0
  1 11  4  0  0  0  0
 11 14  1  0  0  0  0
 12 13  1  0  0  0  0
 13 22  1  0  0  0  0
 13 23  1  0  0  0  0
  3 15  2  0  0  0  0
 15 16  1  0  0  0  0
 16 17  4  0  0  0  0
 16 21  4  0  0  0  0
 17 18  4  0  0  0  0
 18 19  4  0  0  0  0
 19 20  4  0  0  0  0
 20 21  4  0  0  0  0
 22 23  1  0  0  0  0
 14 24  1  0  0  0  0
 24 25  4  0  0  0  0
 25 26  4  0  0  0  0
 26 27  4  0  0  0  0
  8 27  1  0  0  0  0
 27 28  4  0  0  0  0
 24 29  4  0  0  0  0
 28 29  4  0  0  0  0
  8 30  1  0  0  0  0
  5 31  1  0  0  0  0
 30 31  1  0  0  0  0
 31 35  1  0  0  0  0
  5 32  1  0  0  0  0
 32 33  1  0  0  0  0
 33 34  1  0  0  0  0
 34 35  1  0  0  0  0
  5 35  1  0  0  0  0
 35 36  1  0  0  0  0
 37 40  4  0  0  0  0
 38 49  1  0  0  0  0
 38 50  1  0  0  0  0
 38 51  1  0  0  0  0
 40 43  4  0  0  0  0
 42 43  1  0  0  0  0
 43 45  4  0  0  0  0
 45 46  4  0  0  0  0
 46 47  4  0  0  0  0
 46 48  1  0  0  0  0
 37 47  4  0  0  0  0
 47 50  1  0  0  0  0
 48 49  1  0  0  0  0
 49 58  1  0  0  0  0
 49 59  1  0  0  0  0
 39 51  2  0  0  0  0
 51 52  1  0  0  0  0
 52 53  4  0  0  0  0
 52 57  4  0  0  0  0
 53 54  4  0  0  0  0
 54 55  4  0  0  0  0
 55 56  4  0  0  0  0
 56 57  4  0  0  0  0
 58 59  1  0  0  0  0
 50 60  1  0  0  0  0
 60 61  4  0  0  0  0
 61 62  4  0  0  0  0
 62 63  4  0  0  0  0
 44 63  1  0  0  0  0
 63 64  4  0  0  0  0
 60 65  4  0  0  0  0
 64 65  4  0  0  0  0
 44 66  1  0  0  0  0
 41 67  1  0  0  0  0
 66 67  1  0  0  0  0
 41 68  1  0  0  0  0
 68 69  1  0  0  0  0
 69 70  1  0  0  0  0
 70 71  1  0  0  0  0
 41 71  1  0  0  0  0
 71 72  1  0  0  0  0
M  END
$$$$
