8DV5
  PyMOL2.5          3D                             0

 78 88  0  0  0  0  0  0  0  0999 V2000
    6.0288  -27.5319   18.2345 C   0  0  0  0  0  0  0  0  0  0  0  0
    8.1835  -28.8905   20.9925 N   0  0  0  0  0  0  0  0  0  0  0  0
    3.1992  -29.6605   17.0619 O   0  0  0  0  0  0  0  0  0  0  0  0
    4.9952  -27.9311   17.5201 C   0  0  0  0  0  0  0  0  0  0  0  0
    4.2107  -19.6863   22.5477 N   0  0  0  0  0  0  0  0  0  0  0  0
    5.8613  -23.2445   22.9526 O   0  0  0  0  0  0  0  0  0  0  0  0
    4.2712  -29.2587   17.7947 C   0  0  0  0  0  0  0  0  0  0  0  0
   10.3037  -28.1609   20.6757 O   0  0  0  0  0  0  0  0  0  0  0  0
    4.6971  -30.0349   18.7913 C   0  0  0  0  0  0  0  0  0  0  0  0
    5.8730  -29.5667   19.6073 C   0  0  0  0  0  0  0  0  0  0  0  0
    6.5105  -28.4337   19.3439 C   0  0  0  0  0  0  0  0  0  0  0  0
    6.3524  -30.5665   20.7784 C   0  0  0  0  0  0  0  0  0  0  0  0
    7.3997  -29.7781   21.6646 C   0  0  0  0  0  0  0  0  0  0  0  0
    7.6694  -27.9106   20.1472 C   0  0  0  0  0  0  0  0  0  0  0  0
    9.6450  -28.8789   21.2069 C   0  0  0  0  0  0  0  0  0  0  0  0
   10.3474  -30.0035   21.9970 C   0  0  0  0  0  0  0  0  0  0  0  0
   11.1067  -29.8796   23.0492 C   0  0  0  0  0  0  0  0  0  0  0  0
   11.7140  -31.1384   23.6117 C   0  0  0  0  0  0  0  0  0  0  0  0
   11.5130  -32.2844   23.0600 C   0  0  0  0  0  0  0  0  0  0  0  0
   10.6837  -32.4261   21.8168 C   0  0  0  0  0  0  0  0  0  0  0  0
   10.1223  -31.3405   21.3267 C   0  0  0  0  0  0  0  0  0  0  0  0
    7.4536  -30.4588   23.0467 C   0  0  0  0  0  0  0  0  0  0  0  0
    6.6625  -29.2278   22.9092 C   0  0  0  0  0  0  0  0  0  0  0  0
    7.2785  -26.6466   20.8818 C   0  0  0  0  0  0  0  0  0  0  0  0
    8.1019  -25.6443   21.0577 C   0  0  0  0  0  0  0  0  0  0  0  0
    7.5898  -24.3941   21.7921 C   0  0  0  0  0  0  0  0  0  0  0  0
    6.3539  -24.3555   22.2454 C   0  0  0  0  0  0  0  0  0  0  0  0
    5.4467  -25.5469   22.0425 C   0  0  0  0  0  0  0  0  0  0  0  0
    5.8728  -26.5894   21.4094 C   0  0  0  0  0  0  0  0  0  0  0  0
    6.5578  -22.0918   22.6637 C   0  0  0  0  0  0  0  0  0  0  0  0
    5.7579  -20.8751   23.2853 C   0  0  0  0  0  0  0  0  0  0  0  0
    4.2957  -20.9773   22.9586 C   0  0  0  0  0  0  0  0  0  0  0  0
    5.2091  -19.6222   21.6114 C   0  0  0  0  0  0  0  0  0  0  0  0
    6.2938  -19.8424   22.5711 C   0  0  0  0  0  0  0  0  0  0  0  0
    3.1450  -19.3297   22.1417 C   0  0  0  0  0  0  0  0  0  0  0  0
    2.5378  -18.1598   22.9612 C   0  0  0  0  0  0  0  0  0  0  0  0
    3.6991  -17.1963   23.2585 C   0  0  0  0  0  0  0  0  0  0  0  0
    3.2309  -15.9955   24.1023 C   0  0  0  0  0  0  0  0  0  0  0  0
    3.4669  -14.7546   23.2084 C   0  0  0  0  0  0  0  0  0  0  0  0
    2.9845  -37.2040   53.0373 C   0  0  0  0  0  0  0  0  0  0  0  0
    2.6676  -34.1201   50.8608 N   0  0  0  0  0  0  0  0  0  0  0  0
    0.3397  -39.8362   52.5983 O   0  0  0  0  0  0  0  0  0  0  0  0
    2.2920  -38.3261   53.2399 C   0  0  0  0  0  0  0  0  0  0  0  0
   11.8998  -39.0960   51.1241 N   0  0  0  0  0  0  0  0  0  0  0  0
    8.5185  -36.6541   49.7402 O   0  0  0  0  0  0  0  0  0  0  0  0
    1.0421  -38.6504   52.3732 C   0  0  0  0  0  0  0  0  0  0  0  0
    3.2243  -32.4239   52.3290 O   0  0  0  0  0  0  0  0  0  0  0  0
    0.6299  -37.8216   51.4088 C   0  0  0  0  0  0  0  0  0  0  0  0
    1.4291  -36.5502   51.1893 C   0  0  0  0  0  0  0  0  0  0  0  0
    2.5084  -36.2620   51.9320 C   0  0  0  0  0  0  0  0  0  0  0  0
    0.8823  -35.5832   50.0003 C   0  0  0  0  0  0  0  0  0  0  0  0
    2.0148  -34.5334   49.6707 C   0  0  0  0  0  0  0  0  0  0  0  0
    3.3485  -35.0270   51.7461 C   0  0  0  0  0  0  0  0  0  0  0  0
    2.6713  -32.6849   51.3132 C   0  0  0  0  0  0  0  0  0  0  0  0
    1.8961  -31.5653   50.5331 C   0  0  0  0  0  0  0  0  0  0  0  0
    0.5615  -31.6533   50.6247 C   0  0  0  0  0  0  0  0  0  0  0  0
   -0.3382  -30.6307   49.9338 C   0  0  0  0  0  0  0  0  0  0  0  0
    0.2300  -29.6524   49.2513 C   0  0  0  0  0  0  0  0  0  0  0  0
    1.7570  -29.5439   49.1493 C   0  0  0  0  0  0  0  0  0  0  0  0
    2.5559  -30.4322   49.7497 C   0  0  0  0  0  0  0  0  0  0  0  0
    1.5827  -33.9310   48.2961 C   0  0  0  0  0  0  0  0  0  0  0  0
    2.7790  -34.8169   48.3284 C   0  0  0  0  0  0  0  0  0  0  0  0
    4.7252  -35.4509   51.2006 C   0  0  0  0  0  0  0  0  0  0  0  0
    4.7935  -36.4567   50.3168 C   0  0  0  0  0  0  0  0  0  0  0  0
    6.1651  -36.8831   49.7783 C   0  0  0  0  0  0  0  0  0  0  0  0
    7.2504  -36.2570   50.2192 C   0  0  0  0  0  0  0  0  0  0  0  0
    7.1783  -35.1169   51.2552 C   0  0  0  0  0  0  0  0  0  0  0  0
    5.9905  -34.7315   51.7224 C   0  0  0  0  0  0  0  0  0  0  0  0
    9.4861  -36.5632   50.7711 C   0  0  0  0  0  0  0  0  0  0  0  0
   10.8280  -37.2582   50.2293 C   0  0  0  0  0  0  0  0  0  0  0  0
   10.7389  -38.7689   50.3909 C   0  0  0  0  0  0  0  0  0  0  0  0
   12.3681  -37.9214   51.7907 C   0  0  0  0  0  0  0  0  0  0  0  0
   11.9077  -36.7613   50.9636 C   0  0  0  0  0  0  0  0  0  0  0  0
   12.7609  -39.5602   50.3777 C   0  0  0  0  0  0  0  0  0  0  0  0
   14.1047  -39.7315   51.1490 C   0  0  0  0  0  0  0  0  0  0  0  0
   14.9084  -40.9608   50.6442 C   0  0  0  0  0  0  0  0  0  0  0  0
   15.8635  -41.4683   51.7641 C   0  0  0  0  0  0  0  0  0  0  0  0
   15.7840  -40.5874   53.0348 C   0  0  0  0  0  0  0  0  0  0  0  0
  1  4  4  0  0  0  0
  2 13  1  0  0  0  0
  2 14  1  0  0  0  0
  2 15  1  0  0  0  0
  4  7  4  0  0  0  0
  3  7  1  0  0  0  0
  7  9  4  0  0  0  0
  9 10  4  0  0  0  0
 10 11  4  0  0  0  0
 10 12  1  0  0  0  0
  1 11  4  0  0  0  0
 11 14  1  0  0  0  0
 12 13  1  0  0  0  0
 13 22  1  0  0  0  0
 13 23  1  0  0  0  0
  8 15  2  0  0  0  0
 15 16  1  0  0  0  0
 16 17  4  0  0  0  0
 16 21  4  0  0  0  0
 17 18  4  0  0  0  0
 18 19  4  0  0  0  0
 19 20  4  0  0  0  0
 20 21  4  0  0  0  0
 22 23  1  0  0  0  0
 14 24  1  0  0  0  0
 24 25  4  0  0  0  0
 25 26  4  0  0  0  0
 26 27  4  0  0  0  0
  6 27  1  0  0  0  0
 27 28  4  0  0  0  0
 24 29  4  0  0  0  0
 28 29  4  0  0  0  0
  6 30  1  0  0  0  0
 30 31  1  0  0  0  0
 31 32  1  0  0  0  0
 31 34  1  0  0  0  0
  5 32  1  0  0  0  0
  5 33  1  0  0  0  0
 33 34  1  0  0  0  0
  5 35  1  0  0  0  0
 35 36  1  0  0  0  0
 36 37  1  0  0  0  0
 37 38  1  0  0  0  0
 38 39  1  0  0  0  0
 40 43  4  0  0  0  0
 41 52  1  0  0  0  0
 41 53  1  0  0  0  0
 41 54  1  0  0  0  0
 43 46  4  0  0  0  0
 42 46  1  0  0  0  0
 46 48  4  0  0  0  0
 48 49  4  0  0  0  0
 49 50  4  0  0  0  0
 49 51  1  0  0  0  0
 40 50  4  0  0  0  0
 50 53  1  0  0  0  0
 51 52  1  0  0  0  0
 52 61  1  0  0  0  0
 52 62  1  0  0  0  0
 47 54  2  0  0  0  0
 54 55  1  0  0  0  0
 55 56  4  0  0  0  0
 55 60  4  0  0  0  0
 56 57  4  0  0  0  0
 57 58  4  0  0  0  0
 58 59  4  0  0  0  0
 59 60  4  0  0  0  0
 61 62  1  0  0  0  0
 53 63  1  0  0  0  0
 63 64  4  0  0  0  0
 64 65  4  0  0  0  0
 65 66  4  0  0  0  0
 45 66  1  0  0  0  0
 66 67  4  0  0  0  0
 63 68  4  0  0  0  0
 67 68  4  0  0  0  0
 45 69  1  0  0  0  0
 69 70  1  0  0  0  0
 70 71  1  0  0  0  0
 70 73  1  0  0  0  0
 44 71  1  0  0  0  0
 44 72  1  0  0  0  0
 72 73  1  0  0  0  0
 44 74  1  0  0  0  0
 74 75  1  0  0  0  0
 75 76  1  0  0  0  0
 76 77  1  0  0  0  0
 77 78  1  0  0  0  0
M  END
$$$$
