8E18
  PyMOL2.5          3D                             0

 30 30  0  0  0  0  0  0  0  0999 V2000
   61.4279  -11.8077   13.8215 N   0  0  0  0  0  0  0  0  0  0  0  0
   65.2261  -13.6920   15.8071 O   0  0  0  0  0  0  0  0  0  0  0  0
   60.0781  -12.3625   14.0004 C   0  0  0  0  0  0  0  0  0  0  0  0
   64.4617  -11.8034   17.0601 O   0  0  0  0  0  0  0  0  0  0  0  0
   59.0951  -11.7567   13.0046 C   0  0  0  0  0  0  0  0  0  0  0  0
   66.1843  -11.5033   15.4464 O   0  0  0  0  0  0  0  0  0  0  0  0
   59.3224  -10.3536   12.6961 N   0  0  0  0  0  0  0  0  0  0  0  0
   60.6542   -9.7911   12.7326 C   0  0  0  0  0  0  0  0  0  0  0  0
   61.4346  -10.3442   13.9119 C   0  0  0  0  0  0  0  0  0  0  0  0
   58.2670   -9.6080   12.0391 C   0  0  0  0  0  0  0  0  0  0  0  0
   57.6879  -10.3799   10.8614 C   0  0  0  0  0  0  0  0  0  0  0  0
   56.5489  -11.0903   11.2891 O   0  0  0  0  0  0  0  0  0  0  0  0
   62.3377  -12.3501   14.8402 C   0  0  0  0  0  0  0  0  0  0  0  0
   63.7450  -11.9163   14.4698 C   0  0  0  0  0  0  0  0  0  0  0  0
   64.9636  -12.2494   15.7608 S   0  0  0  0  0  0  0  0  0  0  0  0
   79.5550  -26.5821   19.3951 N   0  0  0  0  0  0  0  0  0  0  0  0
   76.3537  -29.4022   21.0615 O   0  0  0  0  0  0  0  0  0  0  0  0
   79.4013  -25.3451   18.5975 C   0  0  0  0  0  0  0  0  0  0  0  0
   77.3660  -29.1775   23.1469 O   0  0  0  0  0  0  0  0  0  0  0  0
   80.6721  -24.9610   17.8501 C   0  0  0  0  0  0  0  0  0  0  0  0
   76.1262  -27.3543   22.0420 O   0  0  0  0  0  0  0  0  0  0  0  0
   81.2017  -26.0452   17.0275 N   0  0  0  0  0  0  0  0  0  0  0  0
   81.3029  -27.2816   17.7781 C   0  0  0  0  0  0  0  0  0  0  0  0
   79.9777  -27.6398   18.4472 C   0  0  0  0  0  0  0  0  0  0  0  0
   82.3820  -25.6363   16.2576 C   0  0  0  0  0  0  0  0  0  0  0  0
   82.5354  -24.1052   16.2898 C   0  0  0  0  0  0  0  0  0  0  0  0
   82.0528  -23.3619   15.1942 O   0  0  0  0  0  0  0  0  0  0  0  0
   78.2432  -27.0339   19.9132 C   0  0  0  0  0  0  0  0  0  0  0  0
   78.5361  -27.9857   21.0529 C   0  0  0  0  0  0  0  0  0  0  0  0
   77.0485  -28.4443   21.9298 S   0  0  0  0  0  0  0  0  0  0  0  0
  1  3  1  0  0  0  0
  1  9  1  0  0  0  0
  1 13  1  0  0  0  0
  3  5  1  0  0  0  0
  5  7  1  0  0  0  0
  7  8  1  0  0  0  0
  7 10  1  0  0  0  0
  8  9  1  0  0  0  0
 10 11  1  0  0  0  0
 11 12  1  0  0  0  0
 13 14  1  0  0  0  0
 14 15  1  0  0  0  0
  2 15  1  0  0  0  0
  4 15  2  0  0  0  0
  6 15  2  0  0  0  0
 16 18  1  0  0  0  0
 16 24  1  0  0  0  0
 16 28  1  0  0  0  0
 18 20  1  0  0  0  0
 20 22  1  0  0  0  0
 22 23  1  0  0  0  0
 22 25  1  0  0  0  0
 23 24  1  0  0  0  0
 25 26  1  0  0  0  0
 26 27  1  0  0  0  0
 28 29  1  0  0  0  0
 29 30  1  0  0  0  0
 17 30  1  0  0  0  0
 19 30  2  0  0  0  0
 21 30  2  0  0  0  0
M  END
$$$$
